
 ===================================================
  XFOIL Version 6.99
  Copyright (C) 2000   Mark Drela, Harold Youngren

  This software comes with ABSOLUTELY NO WARRANTY,
    subject to the GNU General Public License.

  Caveat computor
 ===================================================

 File  xfoil.def  not found

   QUIT    Exit program

  .OPER    Direct operating point(s)
  .MDES    Complex mapping design routine
  .QDES    Surface speed design routine
  .GDES    Geometry design routine

   SAVE f  Write airfoil to labeled coordinate file
   PSAV f  Write airfoil to plain coordinate file
   ISAV f  Write airfoil to ISES coordinate file
   MSAV f  Write airfoil to MSES coordinate file
   REVE    Reverse written-airfoil node ordering

   LOAD f  Read buffer airfoil from coordinate file
   NACA i  Set NACA 4,5-digit airfoil and buffer airfoil
   INTE    Set buffer airfoil by interpolating two airfoils
   NORM    Buffer airfoil normalization toggle
   XYCM rr Change CM reference location, currently  0.25000 0.00000

   BEND    Display structural properties of current airfoil

   PCOP    Set current-airfoil panel nodes directly from buffer airfoil points
   PANE    Set current-airfoil panel nodes ( 160 ) based on curvature
  .PPAR    Show/change paneling

  .PLOP    Plotting options

   WDEF f  Write  current-settings file
   RDEF f  Reread current-settings file
   NAME s  Specify new airfoil name
   NINC    Increment name version number

   Z       Zoom    | (available in all menus)
   U       Unzoom  | 

 XFOIL   c>   Max thickness =     0.120035  at x =   0.300
 Max camber    =     0.020793  at x =   0.202

 Buffer airfoil set using 331 points

 Blunt trailing edge.  Gap =  0.00252

 Paneling parameters used...
   Number of panel nodes       160
   Panel bunching parameter    1.000
   TE/LE panel density ratio   0.150
   Refined-area/LE panel density ratio    0.200
   Top    side refined area x/c limits  1.000 1.000
   Bottom side refined area x/c limits  1.000 1.000

 XFOIL   c>  
.OPERi   c>   Current iteration limit:          10

Enter new iteration limit   i>  
.OPERi   c>  
 XFOIL   c>  
.OPERi   c>  
 Xtr/c     =  1.0000    top    side
 Xtr/c     =  1.0000    bottom side
 Ncrit     =    9.00   ( 0.070 % turb. level )
 Vacc      =  0.0100

 Klag  =  5.6000     Uxwt  =    1.00
 A     =  6.7000     B     =  0.7500       KCt = 0.01485
 CtiniK=  1.8000     CtiniX=  3.3000

..VPAR   c>  
Enter critical amplification ratio   r>  
..VPAR   c>  
.OPERi   c>  
 XFOIL   c>  
 XFOIL   c>  
.OPERi   c>  
.OPERi   c>  
 Sonic Cp =   -104.77      Sonic Q/Qinf =    11.418


.OPERi   c>  
 M  =    0.0800
 Re =    500000

.OPERv   c>  
 Polar  1 newly created for accumulation
 Airfoil archived with polar: NACA 24012                                      

Enter  polar save filename  OR  <return> for no file   s>  
 Polar save file will NOT be written

Enter  polar dump filename  OR  <return> for no file   s>  
 Polar dump file will NOT be written

 Polar accumulation enabled

.OPERva   c>   Calculating unit vorticity distributions ...
 Calculating wake trajectory ...
 Calculating source influence matrix ...

 Solving BL system ...

 Initializing BL ...
    side            1  ...
 MRCHUE: Inverse mode at  63     Hk =   4.146
 MRCHUE: Inverse mode at  64     Hk =   4.635
 MRCHUE: Inverse mode at  65     Hk =   5.083
 MRCHUE: Inverse mode at  66     Hk =   5.477
 MRCHUE: Convergence failed at  67  side 1    Res =  0.2071E+01
 MRCHUE: Inverse mode at  68     Hk =   5.667
    side            2  ...
 MRCHUE: Inverse mode at  23     Hk =   4.003
 MRCHUE: Inverse mode at  24     Hk =   5.041
 MRCHUE: Inverse mode at  25     Hk =   6.039
 MRCHUE: Inverse mode at  26     Hk =   7.031
 MRCHUE: Inverse mode at  27     Hk =   8.042
 MRCHUE: Inverse mode at  28     Hk =   9.093
 MRCHUE: Inverse mode at  29     Hk =   9.887
 MRCHUE: Inverse mode at  30     Hk =   4.093
 MRCHUE: Inverse mode at  31     Hk =   2.500
 MRCHUE: Inverse mode at  32     Hk =   2.500
 MRCHUE: Inverse mode at  33     Hk =   2.500
 MRCHUE: Inverse mode at  34     Hk =   2.500
 MRCHUE: Inverse mode at  35     Hk =   2.500
 MRCHUE: Inverse mode at  36     Hk =   2.500
 MRCHUE: Inverse mode at  37     Hk =   2.500
 MRCHUE: Inverse mode at  38     Hk =   2.500
 MRCHUE: Inverse mode at  39     Hk =   2.500
 MRCHUE: Inverse mode at  40     Hk =   2.500
 MRCHUE: Inverse mode at  41     Hk =   2.500
 MRCHUE: Inverse mode at  42     Hk =   2.500
 MRCHUE: Inverse mode at  43     Hk =   2.500
 MRCHUE: Inverse mode at  44     Hk =   2.500
 MRCHUE: Inverse mode at  45     Hk =   2.500
 MRCHUE: Inverse mode at  46     Hk =   2.500
 MRCHUE: Inverse mode at  47     Hk =   2.500
 MRCHUE: Inverse mode at  48     Hk =   2.500
 MRCHUE: Inverse mode at  49     Hk =   2.500
 MRCHUE: Inverse mode at  50     Hk =   2.500
 MRCHUE: Inverse mode at  78     Hk =   2.500
 MRCHUE: Inverse mode at  79     Hk =   2.500
 MRCHUE: Inverse mode at  80     Hk =   2.500
 MRCHUE: Inverse mode at  81     Hk =   2.500
 MRCHUE: Inverse mode at  82     Hk =   2.500
 MRCHUE: Inverse mode at  83     Hk =   2.500
 MRCHUE: Inverse mode at  84     Hk =   2.500
 MRCHUE: Inverse mode at  85     Hk =   2.500
 MRCHUE: Inverse mode at  86     Hk =   2.500
 MRCHUE: Inverse mode at  87     Hk =   2.500
 MRCHUE: Inverse mode at  88     Hk =   2.500
 MRCHUE: Inverse mode at  89     Hk =   2.500
 MRCHUE: Inverse mode at  90     Hk =   2.500
 MRCHUE: Inverse mode at  91     Hk =   2.500
 MRCHUE: Inverse mode at  92     Hk =   2.500
 MRCHUE: Inverse mode at  93     Hk =   2.500
 MRCHUE: Convergence failed at  94  side 2    Res =  0.9865E+01

 MRCHDU: Convergence failed at  94  side 2    Res =  0.1641E+01
 Side 1 forced transition at x/c =  1.0000   68
 Side 2  free  transition at x/c =  0.0230   29

   1   rms: 0.1561E+01   max: -.1518E+02   C at   68  1   RLX: 0.033
       a =-10.000      CL = -1.1597
      Cm = -0.0070     CD =  0.01617   =>   CDf =  0.00284    CDp =  0.01333

 Side 1 forced transition at x/c =  1.0000   68
 Side 2  free  transition at x/c =  0.0229   29

   2   rms: 0.1948E+01   max: 0.1543E+02   C at   68  1   RLX: 0.092
       a =-10.000      CL = -1.1463
      Cm = -0.0229     CD =  0.01221   =>   CDf =  0.00272    CDp =  0.00949

 Side 1 forced transition at x/c =  1.0000   68
 Side 2  free  transition at x/c =  0.0225   29

   3   rms: 0.7576E+00   max: -.6570E+01   C at   68  1   RLX: 0.076
       a =-10.000      CL = -1.1401
      Cm = -0.0163     CD =  0.01583   =>   CDf =  0.00307    CDp =  0.01276

 Side 1 forced transition at x/c =  1.0000   68
 Side 2  free  transition at x/c =  0.0222   29

   4   rms: 0.1577E+01   max: -.1431E+02   C at   68  1   RLX: 0.035
       a =-10.000      CL = -1.1260
      Cm = -0.0142     CD =  0.01756   =>   CDf =  0.00304    CDp =  0.01452

 Side 1 forced transition at x/c =  1.0000   68
 Side 2  free  transition at x/c =  0.0220   29

   5   rms: 0.1532E+01   max: 0.1133E+02   C at   68  1   RLX: 0.116
       a =-10.000      CL = -1.0996
      Cm = -0.0315     CD =  0.01331   =>   CDf =  0.00283    CDp =  0.01048

 Side 1 forced transition at x/c =  1.0000   68
 Side 2  free  transition at x/c =  0.0219   29

   6   rms: 0.6292E+00   max: -.5467E+01   C at   68  1   RLX: 0.091
       a =-10.000      CL = -1.0974
      Cm = -0.0225     CD =  0.01722   =>   CDf =  0.00324    CDp =  0.01397

 Side 1 forced transition at x/c =  1.0000   68
 Side 2  free  transition at x/c =  0.0216   29

   7   rms: 0.7925E+00   max: -.5509E+01   C at   68  1   RLX: 0.091
       a =-10.000      CL = -1.0751
      Cm = -0.0197     CD =  0.02003   =>   CDf =  0.00320    CDp =  0.01682

 Side 1 forced transition at x/c =  1.0000   68
 Side 2  free  transition at x/c =  0.0213   29

   8   rms: 0.9039E+01   max: -.5438E+02   C at   68  1   RLX: 0.009
       a =-10.000      CL = -1.0738
      Cm = -0.0126     CD =  0.02316   =>   CDf =  0.00300    CDp =  0.02017

 Side 1 forced transition at x/c =  1.0000   68
 Side 2  free  transition at x/c =  0.0212   29

   9   rms: 0.4298E+00   max: 0.2309E+01   C at   68  1   RLX: 0.366
       a =-10.000      CL = -0.9858
      Cm = -0.0337     CD =  0.02206   =>   CDf =  0.00262    CDp =  0.01944

 Side 1 forced transition at x/c =  1.0000   68
 Side 2  free  transition at x/c =  0.0208   29

  10   rms: 0.2401E+01   max: -.1261E+02   C at   68  1   RLX: 0.040
       a =-10.000      CL = -0.9945
      Cm = -0.0186     CD =  0.02884   =>   CDf =  0.00308    CDp =  0.02576

 Side 1 forced transition at x/c =  1.0000   68
 Side 2  free  transition at x/c =  0.0207   29

  11   rms: 0.6289E+00   max: 0.3256E+01   C at   68  1   RLX: 0.252
       a =-10.000      CL = -0.9641
      Cm = -0.0365     CD =  0.02316   =>   CDf =  0.00271    CDp =  0.02045

 Side 1 forced transition at x/c =  1.0000   68
 Side 2  free  transition at x/c =  0.0206   29

  12   rms: 0.1701E+01   max: -.9011E+01   C at   68  1   RLX: 0.055
       a =-10.000      CL = -0.9668
      Cm = -0.0220     CD =  0.03034   =>   CDf =  0.00331    CDp =  0.02703

 Side 1 forced transition at x/c =  1.0000   69
 Side 2  free  transition at x/c =  0.0207   28
 idif Ue xi dudx           1  0.11996300      5.96380234E-03   20.115187    
 Uenew xinew           2  1.76570620E-02  8.77797604E-04

  13   rms: 0.8759E+00   max: 0.4119E+01   C at   69  1   RLX: 0.194
       a =-10.000      CL = -0.9611
      Cm = -0.0377     CD =  0.02303   =>   CDf =  0.00262    CDp =  0.02041

 Side 1 forced transition at x/c =  1.0000   68
 Side 2  free  transition at x/c =  0.0206   29

  14   rms: 0.8419E+00   max: -.4436E+01   C at   68  1   RLX: 0.113
       a =-10.000      CL = -0.9480
      Cm = -0.0270     CD =  0.03025   =>   CDf =  0.00349    CDp =  0.02677

 Side 1 forced transition at x/c =  1.0000   69
 Side 2  free  transition at x/c =  0.0206   28
 idif Ue xi dudx           1  0.13323276      6.74241781E-03   19.760384    
 Uenew xinew           2  3.27313580E-02  1.65641308E-03

  15   rms: 0.2481E+01   max: 0.1015E+02   C at   69  1   RLX: 0.079
       a =-10.000      CL = -0.9751
      Cm = -0.0384     CD =  0.02105   =>   CDf =  0.00284    CDp =  0.01822

 Side 1 forced transition at x/c =  1.0000   68
 Side 2  free  transition at x/c =  0.0206   29

  16   rms: 0.4043E+00   max: -.1802E+01   C at   68  1   RLX: 0.277
       a =-10.000      CL = -0.9328
      Cm = -0.0328     CD =  0.02908   =>   CDf =  0.00370    CDp =  0.02538

 Side 1 forced transition at x/c =  1.0000   68
 Side 2  free  transition at x/c =  0.0207   29

  17   rms: 0.1394E+01   max: 0.3280E+01   D at   38  2   RLX: 0.126
       a =-10.000      CL = -0.8822
      Cm = -0.0303     CD =  0.03757   =>   CDf =  0.00362    CDp =  0.03395

 Side 1 forced transition at x/c =  1.0000   69
 Side 2  free  transition at x/c =  0.0209   28

  18   rms: 0.6750E+00   max: 0.1988E+01   C at   69  1   RLX: 0.277
       a =-10.000      CL = -0.9018
      Cm = -0.0396     CD =  0.02681   =>   CDf =  0.00298    CDp =  0.02383

 Side 1 forced transition at x/c =  1.0000   69
 Side 2  free  transition at x/c =  0.0207   28

  19   rms: 0.8919E+00   max: 0.2194E+01   D at   35  2   RLX: 0.257
       a =-10.000      CL = -0.8366
      Cm = -0.0343     CD =  0.04182   =>   CDf =  0.00360    CDp =  0.03822

 Side 1 forced transition at x/c =  1.0000   69
 Side 2  free  transition at x/c =  0.0212   28

  20   rms: 0.8777E+00   max: -.2100E+01   D at   65  2   RLX: 0.238
       a =-10.000      CL = -0.8740
      Cm = -0.0393     CD =  0.02628   =>   CDf =  0.00320    CDp =  0.02309

 Side 1 forced transition at x/c =  1.0000   69
 Side 2  free  transition at x/c =  0.0209   28

  21   rms: 0.5459E+00   max: 0.1558E+01   D at   32  2   RLX: 0.930
       a =-10.000      CL = -0.7411
      Cm = -0.0363     CD =  0.05535   =>   CDf =  0.00419    CDp =  0.05116

 Side 1 forced transition at x/c =  1.0000   70
 Side 2  free  transition at x/c =  0.0229   27

  22   rms: 0.7099E-01   max: -.3571E+00   C at   70  1
       a =-10.000      CL = -0.6954
      Cm = -0.0388     CD =  0.05539   =>   CDf =  0.00260    CDp =  0.05278

 Side 1 forced transition at x/c =  1.0000   70
 Side 2  free  transition at x/c =  0.0229   27

  23   rms: 0.5326E-01   max: 0.2755E+00   D at   84  2
       a =-10.000      CL = -0.6927
      Cm = -0.0409     CD =  0.05630   =>   CDf =  0.00292    CDp =  0.05338

 Side 1 forced transition at x/c =  1.0000   70
 Side 2  free  transition at x/c =  0.0229   27

  24   rms: 0.2854E+00   max: 0.1143E+01   D at   92  2   RLX: 0.575
       a =-10.000      CL = -0.7352
      Cm = -0.0333     CD =  0.05373   =>   CDf =  0.00353    CDp =  0.05021

 Side 1 forced transition at x/c =  1.0000   70
 Side 2  free  transition at x/c =  0.0230   27

  25   rms: 0.2632E+00   max: 0.7628E+00   D at   85  2
       a =-10.000      CL = -0.6631
      Cm = -0.0421     CD =  0.06498   =>   CDf =  0.00317    CDp =  0.06180

 Side 1 forced transition at x/c =  1.0000   70
 Side 2  free  transition at x/c =  0.0241   28
 idif Ue xi dudx           1  0.17289585      7.88331032E-03   21.931885    
 Uenew xinew           2  7.31768012E-02  3.33654881E-03

  26   rms: 0.5405E+00   max: 0.2089E+01   T at   28  2   RLX: 0.718
       a =-10.000      CL = -0.8603
      Cm = -0.0245     CD =  0.03098   =>   CDf =  0.00618    CDp =  0.02480

 MRCHDU: Convergence failed at  29  side 2    Res =  0.2745E+02
 MRCHDU: Convergence failed at  30  side 2    Res =  0.3410E+02
 MRCHDU: Convergence failed at  31  side 2    Res =  0.4090E+02
 MRCHDU: Convergence failed at  32  side 2    Res =  0.8089E+02
 MRCHDU: Convergence failed at  33  side 2    Res =  0.2167E+03
 MRCHDU: Convergence failed at  34  side 2    Res =  0.1310E+03
 MRCHDU: Convergence failed at  35  side 2    Res =  0.1640E+03
 MRCHDU: Convergence failed at  36  side 2    Res =  0.6489E+02
 MRCHDU: Convergence failed at  37  side 2    Res =  0.1692E+03
 MRCHDU: Convergence failed at  38  side 2    Res =  0.1102E+03
 MRCHDU: Convergence failed at  39  side 2    Res =  0.6497E+02
 MRCHDU: Convergence failed at  40  side 2    Res =  0.5949E+02
 MRCHDU: Convergence failed at  41  side 2    Res =  0.4687E+02
 MRCHDU: Convergence failed at  42  side 2    Res =  0.5081E+02
 MRCHDU: Convergence failed at  43  side 2    Res =  0.7673E+02
 MRCHDU: Convergence failed at  44  side 2    Res =  0.7256E+02
 MRCHDU: Convergence failed at  45  side 2    Res =  0.4581E+02
 MRCHDU: Convergence failed at  46  side 2    Res =  0.4811E+02
 MRCHDU: Convergence failed at  47  side 2    Res =  0.5042E+02
 MRCHDU: Convergence failed at  48  side 2    Res =  0.5277E+02
 MRCHDU: Convergence failed at  49  side 2    Res =  0.5427E+02
 MRCHDU: Convergence failed at  50  side 2    Res =  0.5666E+02
 MRCHDU: Convergence failed at  51  side 2    Res =  0.5912E+02
 MRCHDU: Convergence failed at  52  side 2    Res =  0.5359E+02
 MRCHDU: Convergence failed at  53  side 2    Res =  0.5585E+02
 MRCHDU: Convergence failed at  54  side 2    Res =  0.5823E+02
 MRCHDU: Convergence failed at  55  side 2    Res =  0.6075E+02
 MRCHDU: Convergence failed at  56  side 2    Res =  0.6342E+02
 MRCHDU: Convergence failed at  57  side 2    Res =  0.6607E+02
 MRCHDU: Convergence failed at  58  side 2    Res =  0.6890E+02
 MRCHDU: Convergence failed at  59  side 2    Res =  0.7188E+02
 MRCHDU: Convergence failed at  60  side 2    Res =  0.7503E+02
 MRCHDU: Convergence failed at  61  side 2    Res =  0.7814E+02
 MRCHDU: Convergence failed at  62  side 2    Res =  0.4620E+05
 MRCHDU: Convergence failed at  63  side 2    Res =  0.1173E+05
 MRCHDU: Convergence failed at  64  side 2    Res =  0.1740E+04
 MRCHDU: Convergence failed at  65  side 2    Res =  0.9542E+03
 MRCHDU: Convergence failed at  66  side 2    Res =  0.7004E+03
 MRCHDU: Convergence failed at  67  side 2    Res =  0.8971E+03
 MRCHDU: Convergence failed at  68  side 2    Res =  0.1234E+04
 MRCHDU: Convergence failed at  69  side 2    Res =  0.1933E+04
 MRCHDU: Convergence failed at  70  side 2    Res =  0.4342E+04
 MRCHDU: Convergence failed at  71  side 2    Res =  0.1271E+03
 MRCHDU: Convergence failed at  72  side 2    Res =  0.1240E+03
 MRCHDU: Convergence failed at  73  side 2    Res =  0.2609E+05
 MRCHDU: Convergence failed at  74  side 2    Res =  0.3919E+04
 MRCHDU: Convergence failed at  75  side 2    Res =  0.1166E+03
 MRCHDU: Convergence failed at  76  side 2    Res =  0.3885E+04
 MRCHDU: Convergence failed at  77  side 2    Res =  0.1127E+03
 MRCHDU: Convergence failed at  78  side 2    Res =  0.2704E+04
 MRCHDU: Convergence failed at  79  side 2    Res =  0.2695E+06
 MRCHDU: Convergence failed at  80  side 2    Res =  0.2828E+04
 MRCHDU: Convergence failed at  81  side 2    Res =  0.1415E+04
 MRCHDU: Convergence failed at  82  side 2    Res =  0.9499E+03
 MRCHDU: Convergence failed at  83  side 2    Res =  0.7144E+03
 MRCHDU: Convergence failed at  84  side 2    Res =  0.5743E+03
 MRCHDU: Convergence failed at  85  side 2    Res =  0.4785E+03
 MRCHDU: Convergence failed at  86  side 2    Res =  0.4080E+03
 MRCHDU: Convergence failed at  87  side 2    Res =  0.3514E+03
 MRCHDU: Convergence failed at  88  side 2    Res =  0.3042E+03
 MRCHDU: Convergence failed at  89  side 2    Res =  0.2624E+03
 MRCHDU: Convergence failed at  90  side 2    Res =  0.2254E+03
 MRCHDU: Convergence failed at  91  side 2    Res =  0.1939E+03
 MRCHDU: Convergence failed at  92  side 2    Res =  0.1702E+03
 MRCHDU: Convergence failed at  93  side 2    Res =  0.1415E+03
 Side 1 forced transition at x/c =  1.0000   69
 Side 2  free  transition at x/c =  0.0210   28

  27   rms: 0.2637E+01   max: 0.1728E+02   D at   95  2   RLX: 0.029
       a =-10.000      CL = -4.8607
      Cm =  1.1893     CD =  0.00349   =>   CDf =  0.00149    CDp =  0.00200

 Side 1 forced transition at x/c =  1.0000   69
 Side 2  free  transition at x/c =  0.0212   28

  28   rms: 0.1692E+01   max: -.2042E+02   C at   69  1   RLX: 0.024
       a =-10.000      CL = -3.5890
      Cm =  0.7863     CD =  0.06731   =>   CDf =  0.00203    CDp =  0.06528

 Side 1 forced transition at x/c =  1.0000   69
 Side 2  free  transition at x/c =  0.0213   28

  29   rms: 0.1336E+01   max: -.1290E+02   C at   69  1   RLX: 0.039
       a =-10.000      CL = -3.5232
      Cm =  0.7678     CD =  0.07494   =>   CDf =  0.00207    CDp =  0.07288

 Side 1 forced transition at x/c =  1.0000   69
 Side 2  free  transition at x/c =  0.0216   28

  30   rms: 0.1096E+01   max: -.6868E+01   C at   69  1   RLX: 0.073
       a =-10.000      CL = -3.3531
      Cm =  0.7235     CD =  0.08461   =>   CDf =  0.00211    CDp =  0.08250

 Side 1 forced transition at x/c =  1.0000   69
 Side 2  free  transition at x/c =  0.0224   28

  31   rms: 0.1150E+01   max: 0.6065E+01   T at   29  2   RLX: 0.101
       a =-10.000      CL = -3.0368
      Cm =  0.6439     CD =  0.09451   =>   CDf =  0.00218    CDp =  0.09233

 Side 1 forced transition at x/c =  1.0000   69
 Side 2  free  transition at x/c =  0.0222   28

  32   rms: 0.1161E+01   max: -.2012E+01   T at  103  2   RLX: 0.186
       a =-10.000      CL = -2.5173
      Cm =  0.5153     CD =  0.10209   =>   CDf =  0.00242    CDp =  0.09968

 Side 1 forced transition at x/c =  1.0000   70
 Side 2  free  transition at x/c =  0.0223   27

  33   rms: 0.9713E+00   max: -.1808E+01   T at  106  2   RLX: 0.226
       a =-10.000      CL = -1.9387
      Cm =  0.3736     CD =  0.11638   =>   CDf =  0.00253    CDp =  0.11385

 Side 1 forced transition at x/c =  1.0000   71
 Side 2  free  transition at x/c =  0.0226   26

  34   rms: 0.7218E+00   max: -.1511E+01   D at  113  2   RLX: 0.319
       a =-10.000      CL = -1.3909
      Cm =  0.2373     CD =  0.10855   =>   CDf =  0.00262    CDp =  0.10594

 Side 1 forced transition at x/c =  1.0000   72
 Side 2  free  transition at x/c =  0.0229   25

  35   rms: 0.1228E+01   max: -.1947E+02   D at    2  1   RLX: 0.026
       a =-10.000      CL = -1.3496
      Cm =  0.2246     CD =  0.19777   =>   CDf =  0.00262    CDp =  0.19515

 Side 1 forced transition at x/c =  1.0000   72
 Side 2  free  transition at x/c =  0.0229   25

  36   rms: 0.5173E+00   max: -.1658E+01   D at  112  2   RLX: 0.301
       a =-10.000      CL = -1.0347
      Cm =  0.1453     CD =  0.12528   =>   CDf =  0.00262    CDp =  0.12266

 Side 1 forced transition at x/c =  1.0000   72
 Side 2  free  transition at x/c =  0.0251   26

  37   rms: 0.4757E+00   max: 0.3360E+01   D at   26  2   RLX: 0.446
       a =-10.000      CL = -0.5097
      Cm =  0.0186     CD =  0.13948   =>   CDf =  0.00272    CDp =  0.13677

 Side 1 forced transition at x/c =  1.0000   73
 Side 2  free  transition at x/c =  0.0347   27
 idif Ue xi dudx           1  0.13527745      4.57334518E-03   29.579540    
 Uenew xinew           2  3.57904844E-02  1.20997429E-03

  38   rms: 0.3469E+00   max: 0.2719E+01   T at   27  2   RLX: 0.552
       a =-10.000      CL = -0.3938
      Cm = -0.0325     CD =  0.11131   =>   CDf =  0.00250    CDp =  0.10880

 Side 1 forced transition at x/c =  1.0000   72
 Side 2  free  transition at x/c =  0.0280   27

  39   rms: 0.2334E+00   max: 0.1149E+01   T at   27  2   RLX: 0.599
       a =-10.000      CL = -0.5125
      Cm = -0.0239     CD =  0.09728   =>   CDf =  0.00246    CDp =  0.09481

 Side 1 forced transition at x/c =  1.0000   72
 Side 2  free  transition at x/c =  0.0277   27
 idif Ue xi dudx           1  0.14678292      5.40679693E-03   27.147852    
 Uenew xinew           2  4.64454181E-02  1.71083212E-03

  40   rms: 0.2648E+00   max: -.1046E+01   D at  111  2   RLX: 0.478
       a =-10.000      CL = -0.5500
      Cm = -0.0343     CD =  0.07983   =>   CDf =  0.00233    CDp =  0.07750

 Side 1 forced transition at x/c =  1.0000   71
 Side 2  free  transition at x/c =  0.0279   28

  41   rms: 0.2962E+00   max: -.9854E+00   D at  112  2   RLX: 0.507
       a =-10.000      CL = -0.5820
      Cm = -0.0484     CD =  0.05904   =>   CDf =  0.00238    CDp =  0.05666

 Side 1 forced transition at x/c =  1.0000   71
 Side 2  free  transition at x/c =  0.0279   28
 idif Ue xi dudx           1  0.15498529      6.33412600E-03   24.468300    
 Uenew xinew           2  5.49869724E-02  2.24727392E-03

  42   rms: 0.2107E+00   max: -.6650E+00   D at  108  2   RLX: 0.752
       a =-10.000      CL = -0.6748
      Cm = -0.0507     CD =  0.04992   =>   CDf =  0.00248    CDp =  0.04744

 Side 1 forced transition at x/c =  1.0000   70
 Side 2  free  transition at x/c =  0.0271   28

  43   rms: 0.6985E+00   max: -.3305E+01   T at   28  2   RLX: 0.151
       a =-10.000      CL = -0.7679
      Cm = -0.0400     CD =  0.05348   =>   CDf =  0.00264    CDp =  0.05084

 MRCHDU: Convergence failed at  66  side 2    Res =  0.2781E+01
 MRCHDU: Convergence failed at  67  side 2    Res =  0.2339E+01
 MRCHDU: Convergence failed at  70  side 2    Res =  0.1942E+01
 MRCHDU: Convergence failed at  71  side 2    Res =  0.1984E+01
 MRCHDU: Convergence failed at  72  side 2    Res =  0.1909E+01
 MRCHDU: Convergence failed at  73  side 2    Res =  0.1887E+01
 MRCHDU: Convergence failed at  74  side 2    Res =  0.1908E+01
 MRCHDU: Convergence failed at  75  side 2    Res =  0.1959E+01
 MRCHDU: Convergence failed at  76  side 2    Res =  0.2049E+01
 MRCHDU: Convergence failed at  77  side 2    Res =  0.2154E+01
 MRCHDU: Convergence failed at  78  side 2    Res =  0.2316E+01
 MRCHDU: Convergence failed at  79  side 2    Res =  0.2536E+01
 MRCHDU: Convergence failed at  80  side 2    Res =  0.2820E+01
 MRCHDU: Convergence failed at  81  side 2    Res =  0.3244E+01
 MRCHDU: Convergence failed at  82  side 2    Res =  0.3855E+01
 MRCHDU: Convergence failed at  83  side 2    Res =  0.4874E+01
 MRCHDU: Convergence failed at  84  side 2    Res =  0.5546E+01
 MRCHDU: Convergence failed at  85  side 2    Res =  0.5834E+01
 MRCHDU: Convergence failed at  86  side 2    Res =  0.7031E+01
 MRCHDU: Convergence failed at  87  side 2    Res =  0.1023E+02
 MRCHDU: Convergence failed at  88  side 2    Res =  0.3309E+02
 MRCHDU: Convergence failed at  89  side 2    Res =  0.1676E+02
 MRCHDU: Convergence failed at  90  side 2    Res =  0.7483E+01
 MRCHDU: Convergence failed at  91  side 2    Res =  0.5169E+01
 MRCHDU: Convergence failed at  92  side 2    Res =  0.4484E+01
 Side 1 forced transition at x/c =  1.0000   70
 Side 2  free  transition at x/c =  0.0243   28
 idif Ue xi dudx           1  0.12534527      5.39082289E-03   23.251604    
 Uenew xinew           2  1.96257811E-02  8.44061375E-04

  44   rms: 0.2269E+01   max: 0.7107E+01   T at   28  2   RLX: 0.077
       a =-10.000      CL = -0.9342
      Cm = -0.0004     CD =  0.02985   =>   CDf =  0.00250    CDp =  0.02735

 Side 1 forced transition at x/c =  1.0000   69
 Side 2  free  transition at x/c =  0.0224   28

  45   rms: 0.7999E+00   max: 0.3762E+01   T at   29  2   RLX: 0.199
       a =-10.000      CL = -0.9585
      Cm =  0.0118     CD =  0.04562   =>   CDf =  0.00307    CDp =  0.04254

 Side 1 forced transition at x/c =  1.0000   69
 Side 2  free  transition at x/c =  0.0225   28

  46   rms: 0.2609E+00   max: 0.7991E+00   D at   93  2   RLX: 0.779
       a =-10.000      CL = -0.7562
      Cm = -0.0212     CD =  0.05908   =>   CDf =  0.00281    CDp =  0.05626

 Side 1 forced transition at x/c =  1.0000   70
 Side 2  free  transition at x/c =  0.0231   28
 idif Ue xi dudx           1  0.16135500      7.42506981E-03   21.731110    
 Uenew xinew           2  6.25488311E-02  2.87830830E-03

  47   rms: 0.7159E+00   max: 0.2068E+01   T at   28  2   RLX: 0.725
       a =-10.000      CL = -0.8736
      Cm = -0.0199     CD =  0.04628   =>   CDf =  0.00666    CDp =  0.03963

 MRCHDU: Convergence failed at  29  side 2    Res =  0.1910E+02
 MRCHDU: Convergence failed at  30  side 2    Res =  0.3197E+02
 MRCHDU: Convergence failed at  31  side 2    Res =  0.6435E+02
 MRCHDU: Convergence failed at  32  side 2    Res =  0.9057E+02
 MRCHDU: Convergence failed at  33  side 2    Res =  0.1199E+03
 MRCHDU: Convergence failed at  34  side 2    Res =  0.1698E+03
 MRCHDU: Convergence failed at  35  side 2    Res =  0.2289E+03
 MRCHDU: Convergence failed at  36  side 2    Res =  0.1206E+04
 MRCHDU: Convergence failed at  37  side 2    Res =  0.9118E+02
 MRCHDU: Convergence failed at  38  side 2    Res =  0.8506E+02
 MRCHDU: Convergence failed at  39  side 2    Res =  0.6729E+02
 MRCHDU: Convergence failed at  40  side 2    Res =  0.8890E+02
 MRCHDU: Convergence failed at  41  side 2    Res =  0.9067E+02
 MRCHDU: Convergence failed at  42  side 2    Res =  0.9462E+02
 MRCHDU: Convergence failed at  43  side 2    Res =  0.6374E+02
 MRCHDU: Convergence failed at  44  side 2    Res =  0.6773E+02
 MRCHDU: Convergence failed at  45  side 2    Res =  0.6952E+02
 MRCHDU: Convergence failed at  46  side 2    Res =  0.7303E+02
 MRCHDU: Convergence failed at  47  side 2    Res =  0.1327E+03
 MRCHDU: Convergence failed at  48  side 2    Res =  0.1256E+03
 MRCHDU: Convergence failed at  49  side 2    Res =  0.1197E+03
 MRCHDU: Convergence failed at  50  side 2    Res =  0.7482E+02
 MRCHDU: Convergence failed at  51  side 2    Res =  0.7789E+02
 MRCHDU: Convergence failed at  52  side 2    Res =  0.8104E+02
 MRCHDU: Convergence failed at  53  side 2    Res =  0.8431E+02
 MRCHDU: Convergence failed at  54  side 2    Res =  0.8770E+02
 MRCHDU: Convergence failed at  55  side 2    Res =  0.8805E+02
 MRCHDU: Convergence failed at  56  side 2    Res =  0.9247E+02
 MRCHDU: Convergence failed at  57  side 2    Res =  0.9713E+02
 MRCHDU: Convergence failed at  58  side 2    Res =  0.3152E+03
 MRCHDU: Convergence failed at  59  side 2    Res =  0.2038E+03
 MRCHDU: Convergence failed at  60  side 2    Res =  0.4625E+04
 MRCHDU: Convergence failed at  61  side 2    Res =  0.1913E+04
 MRCHDU: Convergence failed at  62  side 2    Res =  0.1223E+04
 MRCHDU: Convergence failed at  63  side 2    Res =  0.9053E+03
 MRCHDU: Convergence failed at  64  side 2    Res =  0.7232E+03
 MRCHDU: Convergence failed at  65  side 2    Res =  0.6057E+03
 MRCHDU: Convergence failed at  66  side 2    Res =  0.5224E+03
 MRCHDU: Convergence failed at  67  side 2    Res =  0.4600E+03
 MRCHDU: Convergence failed at  68  side 2    Res =  0.4123E+03
 MRCHDU: Convergence failed at  69  side 2    Res =  0.3748E+03
 MRCHDU: Convergence failed at  70  side 2    Res =  0.3440E+03
 MRCHDU: Convergence failed at  71  side 2    Res =  0.3183E+03
 MRCHDU: Convergence failed at  72  side 2    Res =  0.2965E+03
 MRCHDU: Convergence failed at  73  side 2    Res =  0.2778E+03
 MRCHDU: Convergence failed at  74  side 2    Res =  0.2615E+03
 MRCHDU: Convergence failed at  75  side 2    Res =  0.2471E+03
 MRCHDU: Convergence failed at  76  side 2    Res =  0.2343E+03
 MRCHDU: Convergence failed at  77  side 2    Res =  0.2880E+04
 MRCHDU: Convergence failed at  78  side 2    Res =  0.1755E+04
 MRCHDU: Convergence failed at  79  side 2    Res =  0.1261E+04
 MRCHDU: Convergence failed at  80  side 2    Res =  0.9849E+03
 MRCHDU: Convergence failed at  81  side 2    Res =  0.8060E+03
 MRCHDU: Convergence failed at  82  side 2    Res =  0.6828E+03
 MRCHDU: Convergence failed at  83  side 2    Res =  0.5897E+03
 MRCHDU: Convergence failed at  84  side 2    Res =  0.5191E+03
 MRCHDU: Convergence failed at  85  side 2    Res =  0.4617E+03
 MRCHDU: Convergence failed at  86  side 2    Res =  0.4142E+03
 MRCHDU: Convergence failed at  87  side 2    Res =  0.3735E+03
 MRCHDU: Convergence failed at  88  side 2    Res =  0.3374E+03
 MRCHDU: Convergence failed at  89  side 2    Res =  0.3044E+03
 MRCHDU: Convergence failed at  90  side 2    Res =  0.2744E+03
 MRCHDU: Convergence failed at  91  side 2    Res =  0.2475E+03
 MRCHDU: Convergence failed at  92  side 2    Res =  0.2252E+03
 MRCHDU: Convergence failed at  93  side 2    Res =  0.1988E+03
 Side 1 forced transition at x/c =  1.0000   69
 Side 2  free  transition at x/c =  0.0218   28

  48   rms: 0.3120E+01   max: 0.2372E+02   D at   95  2   RLX: 0.026
       a =-10.000      CL = -4.7474
      Cm =  1.1636     CD =  0.00312   =>   CDf =  0.00133    CDp =  0.00179

 Side 1 forced transition at x/c =  1.0000   69
 Side 2  free  transition at x/c =  0.0224   28

  49   rms: 0.3179E+01   max: -.3393E+02   C at   69  1   RLX: 0.015
       a =-10.000      CL = -3.7436
      Cm =  0.8441     CD =  0.07127   =>   CDf =  0.00200    CDp =  0.06927

 Side 1 forced transition at x/c =  1.0000   69
 Side 2  free  transition at x/c =  0.0227   28

  50   rms: 0.2248E+01   max: -.2104E+02   C at   69  1   RLX: 0.024
       a =-10.000      CL = -3.7484
      Cm =  0.8422     CD =  0.07962   =>   CDf =  0.00204    CDp =  0.07758

 Side 1 forced transition at x/c =  1.0000   69
 Side 2  free  transition at x/c =  0.0227   28

  51   rms: 0.1650E+01   max: -.1533E+02   C at   69  1   RLX: 0.033
       a =-10.000      CL = -3.7331
      Cm =  0.8343     CD =  0.09021   =>   CDf =  0.00208    CDp =  0.08813

 Side 1 forced transition at x/c =  1.0000   69
 Side 2  free  transition at x/c =  0.0228   28

  52   rms: 0.1207E+01   max: 0.4509E+01   D at  100  2   RLX: 0.138
       a =-10.000      CL = -3.3602
      Cm =  0.7363     CD =  0.10117   =>   CDf =  0.00213    CDp =  0.09903

 MRCHDU: Convergence failed at 108  side 2    Res =  0.9804E+00
 MRCHDU: Convergence failed at 109  side 2    Res =  0.1544E+01
 MRCHDU: Convergence failed at 110  side 2    Res =  0.4282E+01
 Side 1 forced transition at x/c =  1.0000   69
 Side 2  free  transition at x/c =  0.0227   28

  53   rms: 0.1335E+01   max: -.2901E+01   T at  107  2   RLX: 0.158
       a =-10.000      CL = -2.7625
      Cm =  0.5868     CD =  0.12076   =>   CDf =  0.00247    CDp =  0.11829

 Side 1 forced transition at x/c =  1.0000   70
 Side 2  free  transition at x/c =  0.0238   28

  54   rms: 0.9622E+00   max: -.2641E+01   T at  110  2   RLX: 0.189
       a =-10.000      CL = -2.0317
      Cm =  0.3964     CD =  0.12518   =>   CDf =  0.00244    CDp =  0.12274

 Side 1 forced transition at x/c =  1.0000   70
 Side 2  free  transition at x/c =  0.0235   28

  55   rms: 0.7598E+00   max: -.3352E+01   D at  114  2   RLX: 0.149
       a =-10.000      CL = -1.7742
      Cm =  0.3288     CD =  0.15439   =>   CDf =  0.00268    CDp =  0.15171

 Side 1 forced transition at x/c =  1.0000   71
 Side 2  free  transition at x/c =  0.0235   27

  56   rms: 0.6798E+00   max: -.3139E+01   D at  113  2   RLX: 0.159
       a =-10.000      CL = -1.5292
      Cm =  0.2640     CD =  0.15764   =>   CDf =  0.00265    CDp =  0.15499

 Side 1 forced transition at x/c =  1.0000   71
 Side 2  free  transition at x/c =  0.0234   27

  57   rms: 0.1114E+02   max: -.7509E+02   T at   27  2   RLX: 0.007
       a =-10.000      CL = -1.4898
      Cm =  0.2572     CD =  0.22911   =>   CDf =  0.00271    CDp =  0.22639

 Side 1 forced transition at x/c =  1.0000   71
 Side 2  free  transition at x/c =  0.0258   27

  58   rms: 0.6247E+00   max: -.3089E+01   D at  113  2   RLX: 0.162
       a =-10.000      CL = -1.3349
      Cm =  0.2196     CD =  0.15437   =>   CDf =  0.00279    CDp =  0.15158

 Side 1 forced transition at x/c =  1.0000   72
 Side 2  free  transition at x/c =  0.0263   26

  59   rms: 0.5684E+00   max: -.2269E+01   D at  112  2   RLX: 0.220
       a =-10.000      CL = -1.0976
      Cm =  0.1611     CD =  0.14002   =>   CDf =  0.00273    CDp =  0.13729

 MRCHDU: Convergence failed at 112  side 2    Res =  0.1611E+00
 Side 1 forced transition at x/c =  1.0000   72
 Side 2  free  transition at x/c =  0.0266   26

  60   rms: 0.6705E+00   max: -.1142E+01   T at  111  2   RLX: 0.438
       a =-10.000      CL = -0.6091
      Cm =  0.0576     CD =  0.13616   =>   CDf =  0.00282    CDp =  0.13334

 Side 1 forced transition at x/c =  1.0000   73
 Side 2  free  transition at x/c =  0.0285   26

  61   rms: 0.3570E+00   max: -.9802E+00   T at  110  2   RLX: 0.510
       a =-10.000      CL = -0.3857
      Cm = -0.0040     CD =  0.10052   =>   CDf =  0.00254    CDp =  0.09798

 Side 1 forced transition at x/c =  1.0000   73
 Side 2  free  transition at x/c =  0.0283   26

  62   rms: 0.2500E+00   max: -.8251E+00   D at  108  2   RLX: 0.606
       a =-10.000      CL = -0.3283
      Cm = -0.0335     CD =  0.09654   =>   CDf =  0.00243    CDp =  0.09411

 Side 1 forced transition at x/c =  1.0000   73
 Side 2  free  transition at x/c =  0.0282   26
 idif Ue xi dudx           1  0.15099649      5.10418415E-03   29.582884    
 Uenew xinew           2  5.14982753E-02  1.74081326E-03

  63   rms: 0.2426E+00   max: -.8274E+00   D at  108  2   RLX: 0.604
       a =-10.000      CL = -0.3855
      Cm = -0.0419     CD =  0.09430   =>   CDf =  0.00230    CDp =  0.09199

 Side 1 forced transition at x/c =  1.0000   72
 Side 2  free  transition at x/c =  0.0275   27

  64   rms: 0.1482E+00   max: -.7715E+00   D at  109  2   RLX: 0.648
       a =-10.000      CL = -0.4658
      Cm = -0.0328     CD =  0.09256   =>   CDf =  0.00231    CDp =  0.09024

 TRCHEK2: N2 convergence failed.
 x:  0.07548  0.08104  0.08213  N:  8.967  9.000  9.004  Nx:  38.350   dN:-0.302E+00
 TRCHEK2: N2 convergence failed.
 x:  0.07548  0.08104  0.08213  N:  8.967  9.000  9.004  Nx:  38.471   dN:-0.203E+00
 TRCHEK2: N2 convergence failed.
 x:  0.07548  0.08104  0.08213  N:  8.967  9.000  9.004  Nx:  38.217   dN:-0.190E+00
 TRCHEK2: N2 convergence failed.
 x:  0.07548  0.08140  0.08213  N:  8.967  9.000  9.002  Nx:  37.005   dN:-0.126E+00
 MRCHDU: Convergence failed at  29  side 2    Res =  0.4293E+02
 MRCHDU: Convergence failed at  30  side 2    Res =  0.3118E+02
 MRCHDU: Convergence failed at  31  side 2    Res =  0.6234E+02
 MRCHDU: Convergence failed at  32  side 2    Res =  0.3703E+02
 MRCHDU: Convergence failed at  33  side 2    Res =  0.3161E+02
 MRCHDU: Convergence failed at  34  side 2    Res =  0.2773E+02
 MRCHDU: Convergence failed at  35  side 2    Res =  0.2746E+02
 MRCHDU: Convergence failed at  36  side 2    Res =  0.3910E+02
 MRCHDU: Convergence failed at  37  side 2    Res =  0.6222E+02
 MRCHDU: Convergence failed at  38  side 2    Res =  0.6938E+02
 MRCHDU: Convergence failed at  39  side 2    Res =  0.1310E+03
 MRCHDU: Convergence failed at  40  side 2    Res =  0.6571E+02
 MRCHDU: Convergence failed at  41  side 2    Res =  0.8896E+02
 MRCHDU: Convergence failed at  42  side 2    Res =  0.1554E+03
 MRCHDU: Convergence failed at  43  side 2    Res =  0.2404E+03
 MRCHDU: Convergence failed at  44  side 2    Res =  0.1709E+03
 MRCHDU: Convergence failed at  45  side 2    Res =  0.1725E+03
 MRCHDU: Convergence failed at  46  side 2    Res =  0.1774E+03
 MRCHDU: Convergence failed at  47  side 2    Res =  0.1859E+03
 MRCHDU: Convergence failed at  48  side 2    Res =  0.1981E+03
 MRCHDU: Convergence failed at  49  side 2    Res =  0.2149E+03
 MRCHDU: Convergence failed at  50  side 2    Res =  0.2377E+03
 MRCHDU: Convergence failed at  51  side 2    Res =  0.2684E+03
 MRCHDU: Convergence failed at  52  side 2    Res =  0.3758E+03
 MRCHDU: Convergence failed at  53  side 2    Res =  0.4247E+03
 MRCHDU: Convergence failed at  54  side 2    Res =  0.5300E+03
 MRCHDU: Convergence failed at  55  side 2    Res =  0.7136E+03
 MRCHDU: Convergence failed at  56  side 2    Res =  0.1071E+04
 MRCHDU: Convergence failed at  57  side 2    Res =  0.1975E+04
 MRCHDU: Convergence failed at  58  side 2    Res =  0.6521E+03
 MRCHDU: Convergence failed at  59  side 2    Res =  0.5860E+03
 MRCHDU: Convergence failed at  60  side 2    Res =  0.5320E+03
 MRCHDU: Convergence failed at  61  side 2    Res =  0.4257E+03
 MRCHDU: Convergence failed at  62  side 2    Res =  0.3394E+03
 MRCHDU: Convergence failed at  63  side 2    Res =  0.1709E+03
 MRCHDU: Convergence failed at  64  side 2    Res =  0.1687E+03
 MRCHDU: Convergence failed at  65  side 2    Res =  0.1666E+03
 MRCHDU: Convergence failed at  66  side 2    Res =  0.1563E+03
 MRCHDU: Convergence failed at  67  side 2    Res =  0.1426E+03
 MRCHDU: Convergence failed at  68  side 2    Res =  0.2000E+03
 MRCHDU: Convergence failed at  69  side 2    Res =  0.2038E+03
 MRCHDU: Convergence failed at  70  side 2    Res =  0.2077E+03
 MRCHDU: Convergence failed at  71  side 2    Res =  0.2083E+03
 MRCHDU: Convergence failed at  72  side 2    Res =  0.3210E+03
 MRCHDU: Convergence failed at  73  side 2    Res =  0.3294E+03
 MRCHDU: Convergence failed at  74  side 2    Res =  0.3375E+03
 MRCHDU: Convergence failed at  75  side 2    Res =  0.3454E+03
 MRCHDU: Convergence failed at  76  side 2    Res =  0.3532E+03
 MRCHDU: Convergence failed at  77  side 2    Res =  0.1710E+05
 MRCHDU: Convergence failed at  78  side 2    Res =  0.1337E+07
 MRCHDU: Convergence failed at  79  side 2    Res =  0.3296E+03
 MRCHDU: Convergence failed at  80  side 2    Res =  0.2350E+03
 MRCHDU: Convergence failed at  81  side 2    Res =  0.3682E+03
 MRCHDU: Convergence failed at  82  side 2    Res =  0.1607E+05
 MRCHDU: Convergence failed at  83  side 2    Res =  0.2329E+03
 MRCHDU: Convergence failed at  84  side 2    Res =  0.2353E+03
 MRCHDU: Convergence failed at  85  side 2    Res =  0.2380E+03
 MRCHDU: Convergence failed at  86  side 2    Res =  0.2420E+03
 MRCHDU: Convergence failed at  87  side 2    Res =  0.6480E+04
 MRCHDU: Convergence failed at  88  side 2    Res =  0.3977E+04
 MRCHDU: Convergence failed at  89  side 2    Res =  0.2753E+04
 MRCHDU: Convergence failed at  90  side 2    Res =  0.1641E+04
 MRCHDU: Convergence failed at 100  side 2    Res =  0.3480E-02
 MRCHDU: Convergence failed at 101  side 2    Res =  0.6725E+01
 MRCHDU: Convergence failed at 103  side 2    Res =  0.1233E+03
 MRCHDU: Convergence failed at 104  side 2    Res =  0.3847E+01
 MRCHDU: Convergence failed at 105  side 2    Res =  0.4431E+02
 MRCHDU: Convergence failed at 106  side 2    Res =  0.1266E+01
 MRCHDU: Convergence failed at 107  side 2    Res =  0.2472E+01
 MRCHDU: Convergence failed at 108  side 2    Res =  0.5013E+01
 MRCHDU: Convergence failed at 109  side 2    Res =  0.3476E+01
 MRCHDU: Convergence failed at 110  side 2    Res =  0.3433E+01
 Side 1 forced transition at x/c =  1.0000   72
 Side 2  free  transition at x/c =  0.0383   29

  65   rms: 0.8321E+01   max: 0.1558E+03   T at   29  2   RLX: 0.006
       a =-10.000      CL = -2.4461
      Cm =  0.5830     CD =  0.00421   =>   CDf =  0.00166    CDp =  0.00255

 Side 1 forced transition at x/c =  1.0000   72
 Side 2  free  transition at x/c =  0.0368   28

  66   rms: 0.3199E+01   max: 0.3873E+02   T at   29  2   RLX: 0.018
       a =-10.000      CL = -1.8320
      Cm =  0.3879     CD =  0.11187   =>   CDf =  0.00227    CDp =  0.10960

 Side 1 forced transition at x/c =  1.0000   72
 Side 2  free  transition at x/c =  0.0326   28
 idif Ue xi dudx           1  0.11667605      4.22108173E-03   27.641270    
 Uenew xinew           2  1.45148979E-02  5.25116920E-04

  67   rms: 0.1270E+01   max: 0.1394E+02   T at   28  2   RLX: 0.079
       a =-10.000      CL = -1.9370
      Cm =  0.4073     CD =  0.11060   =>   CDf =  0.00223    CDp =  0.10837

 Side 1 forced transition at x/c =  1.0000   71
 Side 2  free  transition at x/c =  0.0305   28

  68   rms: 0.1296E+01   max: 0.2251E+02   T at   28  2   RLX: 0.054
       a =-10.000      CL = -1.8550
      Cm =  0.3806     CD =  0.13310   =>   CDf =  0.00239    CDp =  0.13071

 Side 1 forced transition at x/c =  1.0000   71
 Side 2  free  transition at x/c =  0.0299   28

  69   rms: 0.9088E+00   max: 0.1057E+02   T at   28  2   RLX: 0.126
       a =-10.000      CL = -1.7685
      Cm =  0.3528     CD =  0.11047   =>   CDf =  0.00243    CDp =  0.10804

 Side 1 forced transition at x/c =  1.0000   71
 Side 2  free  transition at x/c =  0.0266   27

  70   rms: 0.8396E+00   max: -.5987E+01   D at  113  2   RLX: 0.084
       a =-10.000      CL = -1.7889
      Cm =  0.3568     CD =  0.13249   =>   CDf =  0.00256    CDp =  0.12994

 MRCHDU: Convergence failed at 113  side 2    Res =  0.2965E-01
 Side 1 forced transition at x/c =  1.0000   71
 Side 2  free  transition at x/c =  0.0261   27

  71   rms: 0.7778E+00   max: -.4445E+01   D at  113  2   RLX: 0.112
       a =-10.000      CL = -1.6289
      Cm =  0.3166     CD =  0.13227   =>   CDf =  0.00270    CDp =  0.12956

 MRCHDU: Convergence failed at 112  side 2    Res =  0.1839E+00
 Side 1 forced transition at x/c =  1.0000   72
 Side 2  free  transition at x/c =  0.0272   26

  72   rms: 0.9936E+00   max: -.2372E+01   T at  108  2   RLX: 0.211
       a =-10.000      CL = -1.1868
      Cm =  0.2185     CD =  0.12633   =>   CDf =  0.00276    CDp =  0.12357

 Side 1 forced transition at x/c =  1.0000   73
 Side 2  free  transition at x/c =  0.0282   26
 idif Ue xi dudx           1  0.10538709      3.46362591E-03   30.426811    
 Uenew xinew           2  3.05044022E-03  1.00255013E-04

  73   rms: 0.8912E+00   max: 0.6015E+01   T at   26  2   RLX: 0.175
       a =-10.000      CL = -0.9491
      Cm =  0.1505     CD =  0.15733   =>   CDf =  0.00254    CDp =  0.15479

 MRCHDU: Convergence failed at  27  side 2    Res =  0.8509E+01
 MRCHDU: Convergence failed at  29  side 2    Res =  0.1312E+02
 MRCHDU: Convergence failed at  30  side 2    Res =  0.6448E+01
 Side 1 forced transition at x/c =  1.0000   72
 Side 2  free  transition at x/c =  0.0279   27

  74   rms: 0.9904E+00   max: -.9015E+01   D at    2  2   RLX: 0.055
       a =-10.000      CL = -1.2540
      Cm =  0.2189     CD =  0.22260   =>   CDf =  0.00264    CDp =  0.21996

 Side 1 forced transition at x/c =  1.0000   73
 Side 2  free  transition at x/c =  0.0282   26

  75   rms: 0.8090E+00   max: -.2122E+01   T at  111  2   RLX: 0.229
       a =-10.000      CL = -0.8960
      Cm =  0.1482     CD =  0.17251   =>   CDf =  0.00258    CDp =  0.16993

 Side 1 forced transition at x/c =  1.0000   73
 Side 2  free  transition at x/c =  0.0295   26

  76   rms: 0.5946E+00   max: -.2083E+01   T at  111  2   RLX: 0.240
       a =-10.000      CL = -0.6613
      Cm =  0.0933     CD =  0.21989   =>   CDf =  0.00255    CDp =  0.21734

 Side 1 forced transition at x/c =  1.0000   74
 Side 2  free  transition at x/c =  0.0306   25

  77   rms: 0.4649E+00   max: -.1822E+01   T at  110  2   RLX: 0.274
       a =-10.000      CL = -0.4899
      Cm =  0.0511     CD =  0.25172   =>   CDf =  0.00246    CDp =  0.24926

 Side 1 forced transition at x/c =  1.0000   74
 Side 2  free  transition at x/c =  0.0315   25

  78   rms: 0.3426E+00   max: -.1183E+01   T at  110  2   RLX: 0.423
       a =-10.000      CL = -0.3428
      Cm =  0.0103     CD =  0.19939   =>   CDf =  0.00241    CDp =  0.19698

 Side 1 forced transition at x/c =  1.0000   74
 Side 2  free  transition at x/c =  0.0318   25

  79   rms: 0.2675E+00   max: -.9436E+00   D at  110  2   RLX: 0.530
       a =-10.000      CL = -0.2718
      Cm = -0.0184     CD =  0.12572   =>   CDf =  0.00237    CDp =  0.12334

 Side 1 forced transition at x/c =  1.0000   74
 Side 2  free  transition at x/c =  0.0320   25
 idif Ue xi dudx           1  0.13381068      4.07743454E-03   32.817371    
 Uenew xinew           2  3.27328369E-02  9.97424126E-04

  80   rms: 0.2611E+00   max: -.9342E+00   D at  110  2   RLX: 0.535
       a =-10.000      CL = -0.2867
      Cm = -0.0322     CD =  0.09552   =>   CDf =  0.00232    CDp =  0.09319

 Side 1 forced transition at x/c =  1.0000   73
 Side 2  free  transition at x/c =  0.0324   27
 idif Ue xi dudx           1  0.13096191      4.32312489E-03   30.293344    
 Uenew xinew           2  2.90741585E-02  9.59753990E-04

  81   rms: 0.3451E+00   max: 0.1144E+01   T at   27  2   RLX: 0.541
       a =-10.000      CL = -0.3378
      Cm = -0.0492     CD =  0.07773   =>   CDf =  0.00229    CDp =  0.07544

 Side 1 forced transition at x/c =  1.0000   72
 Side 2  free  transition at x/c =  0.0300   27

  82   rms: 0.8009E+00   max: 0.1542E+02   T at   27  2   RLX: 0.097
       a =-10.000      CL = -0.2677
      Cm = -0.0734     CD =  0.07082   =>   CDf =  0.00234    CDp =  0.06849

 Side 1 forced transition at x/c =  1.0000   72
 Side 2  free  transition at x/c =  0.0282   27

  83   rms: 0.2728E+00   max: 0.1662E+01   D at   28  2   RLX: 0.556
       a =-10.000      CL = -0.3973
      Cm = -0.0491     CD =  0.08009   =>   CDf =  0.00234    CDp =  0.07775

 Side 1 forced transition at x/c =  1.0000   72
 Side 2  free  transition at x/c =  0.0278   27
 idif Ue xi dudx           1  0.16602403      6.14732504E-03   27.007524    
 Uenew xinew           2  6.62051737E-02  2.45136023E-03

  84   rms: 0.5438E+00   max: -.1604E+01   D at  109  2   RLX: 0.312
       a =-10.000      CL = -0.4909
      Cm = -0.0534     CD =  0.06477   =>   CDf =  0.00227    CDp =  0.06251

 MRCHDU: Convergence failed at 108  side 2    Res =  0.4023E+01
 MRCHDU: Convergence failed at 109  side 2    Res =  0.1756E+01
 MRCHDU: Convergence failed at 110  side 2    Res =  0.2461E+01
 MRCHDU: Convergence failed at 111  side 2    Res =  0.1077E+01
 MRCHDU: Convergence failed at 112  side 2    Res =  0.1036E+01
 Side 1 forced transition at x/c =  1.0000   71
 Side 2  free  transition at x/c =  0.0282   28
 idif Ue xi dudx           1  0.19704531      8.07631016E-03   24.397938    
 Uenew xinew           2  9.73345488E-02  3.98945808E-03

  85   rms: 0.4777E+00   max: 0.2510E+01   T at   28  2   RLX: 0.519
       a =-10.000      CL = -0.7083
      Cm = -0.0301     CD =  0.05028   =>   CDf =  0.00359    CDp =  0.04669

 MRCHDU: Convergence failed at  30  side 2    Res =  0.2947E+01
 MRCHDU: Convergence failed at  31  side 2    Res =  0.1847E+01
 MRCHDU: Convergence failed at  32  side 2    Res =  0.6314E+01
 MRCHDU: Convergence failed at  33  side 2    Res =  0.1464E+02
 MRCHDU: Convergence failed at  34  side 2    Res =  0.5215E+01
 MRCHDU: Convergence failed at  35  side 2    Res =  0.4234E+01
 MRCHDU: Convergence failed at  36  side 2    Res =  0.4208E+01
 MRCHDU: Convergence failed at  37  side 2    Res =  0.4544E+01
 MRCHDU: Convergence failed at  38  side 2    Res =  0.5179E+01
 MRCHDU: Convergence failed at  39  side 2    Res =  0.6160E+01
 MRCHDU: Convergence failed at  40  side 2    Res =  0.7695E+01
 MRCHDU: Convergence failed at  41  side 2    Res =  0.9581E+01
 MRCHDU: Convergence failed at  42  side 2    Res =  0.1232E+02
 MRCHDU: Convergence failed at  43  side 2    Res =  0.1655E+02
 MRCHDU: Convergence failed at  44  side 2    Res =  0.2382E+02
 MRCHDU: Convergence failed at  45  side 2    Res =  0.1251E+03
 MRCHDU: Convergence failed at  46  side 2    Res =  0.4943E+02
 MRCHDU: Convergence failed at  47  side 2    Res =  0.2665E+02
 MRCHDU: Convergence failed at  48  side 2    Res =  0.4009E+02
 MRCHDU: Convergence failed at  49  side 2    Res =  0.3032E+02
 MRCHDU: Convergence failed at  50  side 2    Res =  0.1873E+02
 MRCHDU: Convergence failed at  51  side 2    Res =  0.1942E+02
 MRCHDU: Convergence failed at  52  side 2    Res =  0.2117E+02
 MRCHDU: Convergence failed at  53  side 2    Res =  0.1187E+02
 MRCHDU: Convergence failed at  54  side 2    Res =  0.1212E+02
 MRCHDU: Convergence failed at  55  side 2    Res =  0.1043E+02
 MRCHDU: Convergence failed at  56  side 2    Res =  0.1167E+02
 MRCHDU: Convergence failed at  57  side 2    Res =  0.1153E+02
 MRCHDU: Convergence failed at  58  side 2    Res =  0.1145E+02
 MRCHDU: Convergence failed at  59  side 2    Res =  0.1150E+02
 MRCHDU: Convergence failed at  60  side 2    Res =  0.1191E+02
 MRCHDU: Convergence failed at  61  side 2    Res =  0.1396E+02
 MRCHDU: Convergence failed at  62  side 2    Res =  0.1368E+02
 MRCHDU: Convergence failed at  63  side 2    Res =  0.1343E+02
 MRCHDU: Convergence failed at  64  side 2    Res =  0.1400E+02
 MRCHDU: Convergence failed at  65  side 2    Res =  0.1370E+02
 MRCHDU: Convergence failed at  66  side 2    Res =  0.1343E+02
 MRCHDU: Convergence failed at  67  side 2    Res =  0.1071E+02
 MRCHDU: Convergence failed at  68  side 2    Res =  0.1323E+02
 MRCHDU: Convergence failed at  69  side 2    Res =  0.1103E+02
 MRCHDU: Convergence failed at  70  side 2    Res =  0.1135E+02
 MRCHDU: Convergence failed at  71  side 2    Res =  0.1169E+02
 MRCHDU: Convergence failed at  72  side 2    Res =  0.1204E+02
 MRCHDU: Convergence failed at  73  side 2    Res =  0.1239E+02
 MRCHDU: Convergence failed at  74  side 2    Res =  0.1276E+02
 MRCHDU: Convergence failed at  75  side 2    Res =  0.1314E+02
 MRCHDU: Convergence failed at  76  side 2    Res =  0.1353E+02
 MRCHDU: Convergence failed at  77  side 2    Res =  0.2927E+02
 MRCHDU: Convergence failed at  78  side 2    Res =  0.3056E+02
 MRCHDU: Convergence failed at  79  side 2    Res =  0.3197E+02
 MRCHDU: Convergence failed at  80  side 2    Res =  0.3348E+02
 MRCHDU: Convergence failed at  81  side 2    Res =  0.3511E+02
 MRCHDU: Convergence failed at  82  side 2    Res =  0.3689E+02
 MRCHDU: Convergence failed at  83  side 2    Res =  0.3885E+02
 MRCHDU: Convergence failed at  84  side 2    Res =  0.4100E+02
 MRCHDU: Convergence failed at  85  side 2    Res =  0.4342E+02
 MRCHDU: Convergence failed at  86  side 2    Res =  0.4618E+02
 MRCHDU: Convergence failed at  87  side 2    Res =  0.4945E+02
 MRCHDU: Convergence failed at  88  side 2    Res =  0.5342E+02
 MRCHDU: Convergence failed at  89  side 2    Res =  0.1024E+03
 MRCHDU: Convergence failed at  90  side 2    Res =  0.1105E+03
 MRCHDU: Convergence failed at  91  side 2    Res =  0.1544E+03
 MRCHDU: Convergence failed at  92  side 2    Res =  0.7585E+02
 MRCHDU: Convergence failed at 114  side 2    Res =  0.1131E+01
 Side 1 forced transition at x/c =  1.0000   70
 Side 2  free  transition at x/c =  0.0242   28
 idif Ue xi dudx           1  0.11262148      4.78357077E-03   23.543392    
 Uenew xinew           2  5.57529321E-03  2.36809254E-04

  86   rms: 0.1473E+01   max: 0.3538E+01   D at   95  2   RLX: 0.176
       a =-10.000      CL = -3.1628
      Cm =  0.7089     CD =  0.00784   =>   CDf =  0.00194    CDp =  0.00590

 Side 1 forced transition at x/c =  1.0000   69
 Side 2  free  transition at x/c =  0.0253   29

  87   rms: 0.1076E+01   max: 0.1115E+01   T at   94  2   RLX: 0.234
       a =-10.000      CL = -2.5298
      Cm =  0.4920     CD =  0.00986   =>   CDf =  0.01657    CDp = -0.00671

 Side 1 forced transition at x/c =  1.0000   69
 Side 2  free  transition at x/c =  0.0237   29

  88   rms: 0.8416E+00   max: 0.1081E+01   T at   94  2   RLX: 0.330
       a =-10.000      CL = -1.9557
      Cm =  0.2941     CD =  0.01386   =>   CDf =  0.01355    CDp =  0.00032

 Side 1 forced transition at x/c =  1.0000   69
 Side 2  free  transition at x/c =  0.0249   29

  89   rms: 0.6662E+00   max: 0.1040E+01   T at   94  2   RLX: 0.511
       a =-10.000      CL = -1.4190
      Cm =  0.1171     CD =  0.02206   =>   CDf =  0.00966    CDp =  0.01240

 Side 1 forced transition at x/c =  1.0000   69
 Side 2  free  transition at x/c =  0.0247   29

  90   rms: 0.4438E+00   max: 0.1643E+01   T at   29  2   RLX: 0.852
       a =-10.000      CL = -0.9140
      Cm = -0.0157     CD =  0.04169   =>   CDf =  0.00545    CDp =  0.03624

 MRCHDU: Convergence failed at  77  side 2    Res =  0.1457E+01
 MRCHDU: Convergence failed at  78  side 2    Res =  0.1492E+01
 MRCHDU: Convergence failed at  79  side 2    Res =  0.1548E+01
 MRCHDU: Convergence failed at  80  side 2    Res =  0.1624E+01
 MRCHDU: Convergence failed at  81  side 2    Res =  0.1721E+01
 MRCHDU: Convergence failed at  82  side 2    Res =  0.1838E+01
 MRCHDU: Convergence failed at  83  side 2    Res =  0.2036E+01
 MRCHDU: Convergence failed at  84  side 2    Res =  0.2225E+01
 MRCHDU: Convergence failed at  85  side 2    Res =  0.2494E+01
 MRCHDU: Convergence failed at  86  side 2    Res =  0.2798E+01
 MRCHDU: Convergence failed at  87  side 2    Res =  0.3171E+01
 MRCHDU: Convergence failed at  88  side 2    Res =  0.3751E+01
 MRCHDU: Convergence failed at  89  side 2    Res =  0.4459E+01
 MRCHDU: Convergence failed at  90  side 2    Res =  0.6613E+01
 MRCHDU: Convergence failed at  91  side 2    Res =  0.9037E+01
 MRCHDU: Convergence failed at  92  side 2    Res =  0.1537E+02
 MRCHDU: Convergence failed at  93  side 2    Res =  0.2541E+02
 Side 1 forced transition at x/c =  1.0000   69
 Side 2  free  transition at x/c =  0.0231   29

  91   rms: 0.2363E+00   max: -.1338E+01   C at   69  1   RLX: 0.374
       a =-10.000      CL = -0.9202
      Cm =  0.0112     CD =  0.04501   =>   CDf =  0.00236    CDp =  0.04266

 Side 1 forced transition at x/c =  1.0000   69
 Side 2  free  transition at x/c =  0.0228   28

  92   rms: 0.6553E+00   max: 0.1878E+01   D at   93  2   RLX: 0.500
       a =-10.000      CL = -0.9265
      Cm = -0.0015     CD =  0.03448   =>   CDf =  0.00524    CDp =  0.02924

 MRCHDU: Convergence failed at  93  side 2    Res =  0.1404E+01
 Side 1 forced transition at x/c =  1.0000   69
 Side 2  free  transition at x/c =  0.0232   29

  93   rms: 0.1952E+00   max: -.1057E+01   C at   69  1   RLX: 0.473
       a =-10.000      CL = -0.8628
      Cm = -0.0105     CD =  0.04727   =>   CDf =  0.00259    CDp =  0.04468

 Side 1 forced transition at x/c =  1.0000   69
 Side 2  free  transition at x/c =  0.0241   29

  94   rms: 0.1703E+00   max: 0.6738E+00   T at   29  2
       a =-10.000      CL = -0.7023
      Cm = -0.0467     CD =  0.04895   =>   CDf =  0.00241    CDp =  0.04653

 MRCHDU: Convergence failed at  61  side 2    Res =  0.4000E+01
 MRCHDU: Convergence failed at  62  side 2    Res =  0.4380E+01
 MRCHDU: Convergence failed at  63  side 2    Res =  0.5023E+01
 MRCHDU: Convergence failed at  64  side 2    Res =  0.6160E+01
 MRCHDU: Convergence failed at  65  side 2    Res =  0.8011E+01
 MRCHDU: Convergence failed at  66  side 2    Res =  0.1236E+02
 MRCHDU: Convergence failed at  67  side 2    Res =  0.8515E+02
 MRCHDU: Convergence failed at  68  side 2    Res =  0.3492E+02
 MRCHDU: Convergence failed at  69  side 2    Res =  0.1441E+02
 MRCHDU: Convergence failed at  70  side 2    Res =  0.8231E+01
 MRCHDU: Convergence failed at  71  side 2    Res =  0.5917E+01
 MRCHDU: Convergence failed at  72  side 2    Res =  0.4749E+01
 MRCHDU: Convergence failed at  73  side 2    Res =  0.3961E+01
 MRCHDU: Convergence failed at  74  side 2    Res =  0.3377E+01
 MRCHDU: Convergence failed at  75  side 2    Res =  0.3006E+01
 MRCHDU: Convergence failed at  76  side 2    Res =  0.2513E+01
 MRCHDU: Convergence failed at  77  side 2    Res =  0.2311E+01
 MRCHDU: Convergence failed at  78  side 2    Res =  0.2108E+01
 MRCHDU: Convergence failed at  79  side 2    Res =  0.1939E+01
 MRCHDU: Convergence failed at  80  side 2    Res =  0.2103E+01
 MRCHDU: Convergence failed at  81  side 2    Res =  0.2235E+01
 MRCHDU: Convergence failed at  82  side 2    Res =  0.2417E+01
 MRCHDU: Convergence failed at  83  side 2    Res =  0.2607E+01
 MRCHDU: Convergence failed at  84  side 2    Res =  0.2906E+01
 MRCHDU: Convergence failed at  85  side 2    Res =  0.3184E+01
 MRCHDU: Convergence failed at  86  side 2    Res =  0.3509E+01
 MRCHDU: Convergence failed at  87  side 2    Res =  0.3884E+01
 MRCHDU: Convergence failed at  88  side 2    Res =  0.4330E+01
 MRCHDU: Convergence failed at  89  side 2    Res =  0.4331E+01
 MRCHDU: Convergence failed at  90  side 2    Res =  0.1033E+02
 MRCHDU: Convergence failed at  91  side 2    Res =  0.2918E+02
 MRCHDU: Convergence failed at  92  side 2    Res =  0.9096E+02
 Side 1 forced transition at x/c =  1.0000   70
 Side 2  free  transition at x/c =  0.0230   27

  95   rms: 0.1675E+00   max: 0.3441E+00   D at   93  2
       a =-10.000      CL = -0.6753
      Cm = -0.0392     CD =  0.05194   =>   CDf =  0.00247    CDp =  0.04947

 Side 1 forced transition at x/c =  1.0000   70
 Side 2  free  transition at x/c =  0.0229   27

  96   rms: 0.3669E+00   max: 0.1288E+01   D at   92  2   RLX: 0.576
       a =-10.000      CL = -0.7254
      Cm = -0.0339     CD =  0.05546   =>   CDf =  0.00354    CDp =  0.05192

 Side 1 forced transition at x/c =  1.0000   70
 Side 2  free  transition at x/c =  0.0230   28
 idif Ue xi dudx           1  0.14304724      6.48802519E-03   22.047886    
 Uenew xinew           2  4.28007618E-02  1.94126368E-03

  97   rms: 0.1310E+01   max: -.2898E+01   D at   63  2   RLX: 0.173
       a =-10.000      CL = -0.8126
      Cm = -0.0351     CD =  0.03281   =>   CDf =  0.00277    CDp =  0.03004

 MRCHDU: Convergence failed at  37  side 2    Res =  0.7912E+00
 MRCHDU: Convergence failed at  38  side 2    Res =  0.8879E+00
 MRCHDU: Convergence failed at  39  side 2    Res =  0.1639E+01
 MRCHDU: Convergence failed at  40  side 2    Res =  0.2630E+01
 MRCHDU: Convergence failed at  41  side 2    Res =  0.4507E+01
 MRCHDU: Convergence failed at  42  side 2    Res =  0.9600E+01
 MRCHDU: Convergence failed at  43  side 2    Res =  0.7177E+02
 MRCHDU: Convergence failed at  44  side 2    Res =  0.1817E+02
 MRCHDU: Convergence failed at  45  side 2    Res =  0.9477E+01
 MRCHDU: Convergence failed at  46  side 2    Res =  0.6677E+01
 MRCHDU: Convergence failed at  47  side 2    Res =  0.5643E+01
 MRCHDU: Convergence failed at  48  side 2    Res =  0.5256E+01
 MRCHDU: Convergence failed at  49  side 2    Res =  0.5158E+01
 MRCHDU: Convergence failed at  50  side 2    Res =  0.5088E+01
 MRCHDU: Convergence failed at  51  side 2    Res =  0.5282E+01
 MRCHDU: Convergence failed at  52  side 2    Res =  0.5743E+01
 MRCHDU: Convergence failed at  53  side 2    Res =  0.6117E+01
 MRCHDU: Convergence failed at  54  side 2    Res =  0.6562E+01
 MRCHDU: Convergence failed at  55  side 2    Res =  0.7093E+01
 MRCHDU: Convergence failed at  56  side 2    Res =  0.7685E+01
 MRCHDU: Convergence failed at  57  side 2    Res =  0.8816E+01
 MRCHDU: Convergence failed at  58  side 2    Res =  0.9692E+01
 MRCHDU: Convergence failed at  59  side 2    Res =  0.1139E+02
 MRCHDU: Convergence failed at  60  side 2    Res =  0.1503E+02
 MRCHDU: Convergence failed at  61  side 2    Res =  0.1708E+02
 MRCHDU: Convergence failed at  62  side 2    Res =  0.1982E+02
 MRCHDU: Convergence failed at  63  side 2    Res =  0.2335E+02
 MRCHDU: Convergence failed at  64  side 2    Res =  0.3360E+02
 MRCHDU: Convergence failed at  65  side 2    Res =  0.9331E+02
 MRCHDU: Convergence failed at  66  side 2    Res =  0.2265E+03
 MRCHDU: Convergence failed at  67  side 2    Res =  0.8653E+02
 MRCHDU: Convergence failed at  68  side 2    Res =  0.4027E+02
 MRCHDU: Convergence failed at  69  side 2    Res =  0.3136E+02
 MRCHDU: Convergence failed at  70  side 2    Res =  0.3991E+02
 MRCHDU: Convergence failed at  71  side 2    Res =  0.2407E+02
 MRCHDU: Convergence failed at  72  side 2    Res =  0.1684E+02
 MRCHDU: Convergence failed at  73  side 2    Res =  0.1429E+02
 MRCHDU: Convergence failed at  74  side 2    Res =  0.1161E+02
 MRCHDU: Convergence failed at  75  side 2    Res =  0.9251E+01
 MRCHDU: Convergence failed at  76  side 2    Res =  0.8071E+01
 MRCHDU: Convergence failed at  77  side 2    Res =  0.7309E+01
 MRCHDU: Convergence failed at  78  side 2    Res =  0.7797E+01
 MRCHDU: Convergence failed at  79  side 2    Res =  0.8537E+01
 MRCHDU: Convergence failed at  80  side 2    Res =  0.9176E+01
 MRCHDU: Convergence failed at  81  side 2    Res =  0.9132E+01
 MRCHDU: Convergence failed at  82  side 2    Res =  0.1138E+02
 MRCHDU: Convergence failed at  83  side 2    Res =  0.1406E+02
 MRCHDU: Convergence failed at  84  side 2    Res =  0.1718E+02
 MRCHDU: Convergence failed at  85  side 2    Res =  0.1760E+02
 MRCHDU: Convergence failed at  86  side 2    Res =  0.2841E+02
 MRCHDU: Convergence failed at  87  side 2    Res =  0.3267E+02
 MRCHDU: Convergence failed at  88  side 2    Res =  0.5025E+02
 MRCHDU: Convergence failed at  89  side 2    Res =  0.1705E+03
 MRCHDU: Convergence failed at  90  side 2    Res =  0.2669E+04
 MRCHDU: Convergence failed at  91  side 2    Res =  0.1221E+03
 MRCHDU: Convergence failed at  92  side 2    Res =  0.4790E+02
 MRCHDU: Convergence failed at  93  side 2    Res =  0.3031E+02
 Side 1 forced transition at x/c =  1.0000   69
 Side 2  free  transition at x/c =  0.0221   28

  98   rms: 0.2591E+01   max: -.1241E+02   T at   28  2   RLX: 0.040
       a =-10.000      CL = -2.0610
      Cm =  0.4191     CD =  0.01630   =>   CDf =  0.00280    CDp =  0.01350

 Side 1 forced transition at x/c =  1.0000   69
 Side 2  free  transition at x/c =  0.0216   28

  99   rms: 0.1249E+01   max: 0.3389E+01   D at   39  2   RLX: 0.443
       a =-10.000      CL = -1.5806
      Cm =  0.1981     CD =  0.01762   =>   CDf =  0.01074    CDp =  0.00688

 Side 1 forced transition at x/c =  1.0000   69
 Side 2  free  transition at x/c =  0.0225   28

 100   rms: 0.6029E+00   max: 0.1264E+01   D at  101  2   RLX: 0.732
       a =-10.000      CL = -1.0670
      Cm =  0.0293     CD =  0.04475   =>   CDf =  0.00516    CDp =  0.03959
 VISCAL:  Convergence failed

.OPERva   c>  
.OPERva   c>  
.OPERva   c>   Calculating wake trajectory ...
 Calculating source influence matrix ...

 Solving BL system ...

 Side 1 forced transition at x/c =  1.0000   69
 Side 2  free  transition at x/c =  0.0328   31

   1   rms: 0.5404E+00   max: 0.2104E+01   T at   31  2   RLX: 0.713
       a = -9.900      CL = -0.8015
      Cm = -0.0206     CD =  0.06012   =>   CDf =  0.00443    CDp =  0.05569

 Side 1 forced transition at x/c =  1.0000   70
 Side 2  free  transition at x/c =  0.0291   29

   2   rms: 0.1106E+01   max: 0.3153E+01   D at   40  2   RLX: 0.476
       a = -9.900      CL = -0.6896
      Cm = -0.0283     CD =  0.07530   =>   CDf =  0.00348    CDp =  0.07182

 Side 1 forced transition at x/c =  1.0000   71
 Side 2  free  transition at x/c =  0.0269   27
 idif Ue xi dudx           1  0.10273917      4.35352325E-03   23.599087    
 Uenew xinew           2  6.29319623E-03  2.66671181E-04

   3   rms: 0.7149E+00   max: 0.5004E+01   T at   28  2   RLX: 0.231
       a = -9.900      CL = -0.6782
      Cm = -0.0238     CD =  0.06093   =>   CDf =  0.00239    CDp =  0.05854

 Side 1 forced transition at x/c =  1.0000   70
 Side 2  free  transition at x/c =  0.0259   28

   4   rms: 0.7485E+00   max: 0.2087E+01   D at   37  2   RLX: 0.616
       a = -9.900      CL = -0.8146
      Cm = -0.0217     CD =  0.04237   =>   CDf =  0.00543    CDp =  0.03694

 Side 1 forced transition at x/c =  1.0000   70
 Side 2  free  transition at x/c =  0.0333   30
 idif Ue xi dudx           1  0.11756840      5.31417131E-03   22.123562    
 Uenew xinew           2  1.69778373E-02  7.67409801E-04

   5   rms: 0.7182E+00   max: 0.2798E+01   D at   33  2   RLX: 0.536
       a = -9.900      CL = -0.8251
      Cm = -0.0286     CD =  0.03900   =>   CDf =  0.00552    CDp =  0.03348

 MRCHDU: Convergence failed at  34  side 2    Res =  0.1273E+02
 MRCHDU: Convergence failed at  35  side 2    Res =  0.3254E+01
 MRCHDU: Convergence failed at  36  side 2    Res =  0.2102E+01
 MRCHDU: Convergence failed at  37  side 2    Res =  0.1937E+01
 MRCHDU: Convergence failed at  38  side 2    Res =  0.2354E+01
 MRCHDU: Convergence failed at  39  side 2    Res =  0.2773E+01
 MRCHDU: Convergence failed at  40  side 2    Res =  0.3606E+01
 MRCHDU: Convergence failed at  41  side 2    Res =  0.7263E+01
 MRCHDU: Convergence failed at  42  side 2    Res =  0.2493E+02
 MRCHDU: Convergence failed at  43  side 2    Res =  0.1286E+03
 MRCHDU: Convergence failed at  44  side 2    Res =  0.1066E+03
 MRCHDU: Convergence failed at  45  side 2    Res =  0.1545E+03
 MRCHDU: Convergence failed at  46  side 2    Res =  0.5256E+03
 MRCHDU: Convergence failed at  47  side 2    Res =  0.8477E+03
 MRCHDU: Convergence failed at  48  side 2    Res =  0.1999E+02
 MRCHDU: Convergence failed at  49  side 2    Res =  0.1892E+02
 MRCHDU: Convergence failed at  50  side 2    Res =  0.1767E+02
 MRCHDU: Convergence failed at  51  side 2    Res =  0.1644E+02
 MRCHDU: Convergence failed at  52  side 2    Res =  0.1531E+02
 MRCHDU: Convergence failed at  53  side 2    Res =  0.9920E+01
 MRCHDU: Convergence failed at  54  side 2    Res =  0.2173E+02
 MRCHDU: Convergence failed at  55  side 2    Res =  0.6333E+02
 MRCHDU: Convergence failed at  56  side 2    Res =  0.6213E+02
 MRCHDU: Convergence failed at  57  side 2    Res =  0.1080E+03
 MRCHDU: Convergence failed at  58  side 2    Res =  0.6743E+02
 MRCHDU: Convergence failed at  59  side 2    Res =  0.1350E+02
 MRCHDU: Convergence failed at  60  side 2    Res =  0.1297E+02
 MRCHDU: Convergence failed at  61  side 2    Res =  0.1122E+02
 MRCHDU: Convergence failed at  62  side 2    Res =  0.9966E+01
 MRCHDU: Convergence failed at  63  side 2    Res =  0.1045E+02
 MRCHDU: Convergence failed at  64  side 2    Res =  0.1098E+02
 MRCHDU: Convergence failed at  65  side 2    Res =  0.1158E+02
 MRCHDU: Convergence failed at  66  side 2    Res =  0.1225E+02
 MRCHDU: Convergence failed at  67  side 2    Res =  0.1853E+02
 MRCHDU: Convergence failed at  68  side 2    Res =  0.1089E+02
 MRCHDU: Convergence failed at  69  side 2    Res =  0.1150E+02
 MRCHDU: Convergence failed at  70  side 2    Res =  0.1218E+02
 MRCHDU: Convergence failed at  71  side 2    Res =  0.1366E+02
 MRCHDU: Convergence failed at  72  side 2    Res =  0.1444E+02
 MRCHDU: Convergence failed at  73  side 2    Res =  0.1532E+02
 MRCHDU: Convergence failed at  74  side 2    Res =  0.1629E+02
 MRCHDU: Convergence failed at  75  side 2    Res =  0.1650E+02
 MRCHDU: Convergence failed at  76  side 2    Res =  0.1769E+02
 MRCHDU: Convergence failed at  77  side 2    Res =  0.1907E+02
 MRCHDU: Convergence failed at  78  side 2    Res =  0.4814E+02
 MRCHDU: Convergence failed at  79  side 2    Res =  0.5931E+02
 MRCHDU: Convergence failed at  80  side 2    Res =  0.7738E+02
 MRCHDU: Convergence failed at  81  side 2    Res =  0.3563E+03
 MRCHDU: Convergence failed at  82  side 2    Res =  0.1489E+03
 MRCHDU: Convergence failed at  83  side 2    Res =  0.9397E+02
 MRCHDU: Convergence failed at  84  side 2    Res =  0.1955E+02
 MRCHDU: Convergence failed at  85  side 2    Res =  0.2096E+02
 MRCHDU: Convergence failed at  86  side 2    Res =  0.1428E+02
 MRCHDU: Convergence failed at  87  side 2    Res =  0.7338E+02
 MRCHDU: Convergence failed at  88  side 2    Res =  0.2041E+02
 MRCHDU: Convergence failed at  89  side 2    Res =  0.2270E+02
 MRCHDU: Convergence failed at  90  side 2    Res =  0.2556E+02
 MRCHDU: Convergence failed at  91  side 2    Res =  0.2915E+02
 MRCHDU: Convergence failed at  92  side 2    Res =  0.3349E+02
 MRCHDU: Convergence failed at  93  side 2    Res =  0.4234E+02
 Side 1 forced transition at x/c =  1.0000   69
 Side 2  free  transition at x/c =  0.0306   30

   6   rms: 0.1259E+01   max: -.4032E+01   C at   69  1   RLX: 0.124
       a = -9.900      CL = -2.7019
      Cm =  0.5926     CD =  0.01026   =>   CDf =  0.00217    CDp =  0.00809

 Side 1 forced transition at x/c =  1.0000   69
 Side 2  free  transition at x/c =  0.0298   30

   7   rms: 0.9736E+00   max: 0.1203E+01   T at   94  2   RLX: 0.300
       a = -9.900      CL = -2.1031
      Cm =  0.3718     CD =  0.01046   =>   CDf =  0.01440    CDp = -0.00394

 Side 1 forced transition at x/c =  1.0000   69
 Side 2  free  transition at x/c =  0.0280   30

   8   rms: 0.7576E+00   max: 0.1177E+01   T at   94  2   RLX: 0.456
       a = -9.900      CL = -1.5556
      Cm =  0.1744     CD =  0.01916   =>   CDf =  0.01048    CDp =  0.00868

 Side 1 forced transition at x/c =  1.0000   69
 Side 2  free  transition at x/c =  0.0274   30

   9   rms: 0.4662E+00   max: 0.8749E+00   D at  104  2   RLX: 0.682
       a = -9.900      CL = -1.0428
      Cm =  0.0266     CD =  0.04496   =>   CDf =  0.00556    CDp =  0.03940

 Side 1 forced transition at x/c =  1.0000   69
 Side 2  free  transition at x/c =  0.0274   30

  10   rms: 0.7935E+00   max: -.4790E+01   C at   69  1   RLX: 0.104
       a = -9.900      CL = -0.9963
      Cm =  0.0294     CD =  0.05356   =>   CDf =  0.00284    CDp =  0.05072

 Side 1 forced transition at x/c =  1.0000   70
 Side 2  free  transition at x/c =  0.0275   29

  11   rms: 0.5572E+00   max: 0.1048E+01   D at  105  2   RLX: 0.270
       a = -9.900      CL = -0.8733
      Cm =  0.0181     CD =  0.06424   =>   CDf =  0.00244    CDp =  0.06180

 Side 1 forced transition at x/c =  1.0000   70
 Side 2  free  transition at x/c =  0.0277   29

  12   rms: 0.5320E+00   max: 0.9962E+00   D at   60  2   RLX: 0.465
       a = -9.900      CL = -0.6973
      Cm =  0.0111     CD =  0.08456   =>   CDf =  0.00234    CDp =  0.08222

 Side 1 forced transition at x/c =  1.0000   71
 Side 2  free  transition at x/c =  0.0283   28

  13   rms: 0.2685E+00   max: -.9905E+00   T at   28  2   RLX: 0.505
       a = -9.900      CL = -0.5913
      Cm =  0.0089     CD =  0.09948   =>   CDf =  0.00231    CDp =  0.09716

 Side 1 forced transition at x/c =  1.0000   72
 Side 2  free  transition at x/c =  0.0292   27

  14   rms: 0.6649E-01   max: -.5153E+00   T at   27  2   RLX: 0.970
       a = -9.900      CL = -0.5049
      Cm = -0.0103     CD =  0.09532   =>   CDf =  0.00231    CDp =  0.09301

 Side 1 forced transition at x/c =  1.0000   72
 Side 2  free  transition at x/c =  0.0310   27

  15   rms: 0.8276E-01   max: -.4817E+00   T at   27  2
       a = -9.900      CL = -0.5170
      Cm = -0.0161     CD =  0.08922   =>   CDf =  0.00234    CDp =  0.08688

 Side 1 forced transition at x/c =  1.0000   72
 Side 2  free  transition at x/c =  0.0311   27

  16   rms: 0.4788E-01   max: -.3587E+00   D at   27  2
       a = -9.900      CL = -0.5321
      Cm = -0.0150     CD =  0.09365   =>   CDf =  0.00233    CDp =  0.09132

 Side 1 forced transition at x/c =  1.0000   72
 Side 2  free  transition at x/c =  0.0312   27

  17   rms: 0.6061E-01   max: -.4790E+00   T at   27  2
       a = -9.900      CL = -0.5379
      Cm = -0.0203     CD =  0.08636   =>   CDf =  0.00231    CDp =  0.08405

 Side 1 forced transition at x/c =  1.0000   72
 Side 2  free  transition at x/c =  0.0307   27

  18   rms: 0.2070E+00   max: 0.6059E+00   D at   29  2
       a = -9.900      CL = -0.5180
      Cm = -0.0040     CD =  0.11109   =>   CDf =  0.00231    CDp =  0.10878

 Side 1 forced transition at x/c =  1.0000   72
 Side 2  free  transition at x/c =  0.0302   27

  19   rms: 0.7745E-01   max: -.3889E+00   D at   27  2
       a = -9.900      CL = -0.5206
      Cm = -0.0136     CD =  0.09338   =>   CDf =  0.00232    CDp =  0.09107

 Side 1 forced transition at x/c =  1.0000   72
 Side 2  free  transition at x/c =  0.0315   27

  20   rms: 0.4306E-01   max: -.3406E+00   T at   28  2
       a = -9.900      CL = -0.5193
      Cm = -0.0107     CD =  0.09560   =>   CDf =  0.00232    CDp =  0.09327

 Side 1 forced transition at x/c =  1.0000   72
 Side 2  free  transition at x/c =  0.0308   27

  21   rms: 0.7159E-01   max: -.5951E+00   T at   27  2   RLX: 0.840
       a = -9.900      CL = -0.5227
      Cm = -0.0134     CD =  0.09083   =>   CDf =  0.00232    CDp =  0.08851

 Side 1 forced transition at x/c =  1.0000   72
 Side 2  free  transition at x/c =  0.0312   27

  22   rms: 0.3825E-01   max: -.3230E+00   D at   27  2
       a = -9.900      CL = -0.5313
      Cm = -0.0172     CD =  0.08924   =>   CDf =  0.00233    CDp =  0.08691

 Side 1 forced transition at x/c =  1.0000   72
 Side 2  free  transition at x/c =  0.0320   27

  23   rms: 0.1331E+00   max: -.6199E+00   T at   28  2   RLX: 0.807
       a = -9.900      CL = -0.5144
      Cm = -0.0057     CD =  0.09851   =>   CDf =  0.00232    CDp =  0.09619

 Side 1 forced transition at x/c =  1.0000   72
 Side 2  free  transition at x/c =  0.0313   27

  24   rms: 0.3800E+00   max: 0.3115E+01   T at   27  2   RLX: 0.164
       a = -9.900      CL = -0.5493
      Cm =  0.0096     CD =  0.10546   =>   CDf =  0.00238    CDp =  0.10309

 Side 1 forced transition at x/c =  1.0000   73
 Side 2  free  transition at x/c =  0.0301   26

  25   rms: 0.9938E-01   max: -.5037E+00   T at   26  2   RLX: 0.993
       a = -9.900      CL = -0.4747
      Cm = -0.0090     CD =  0.09482   =>   CDf =  0.00235    CDp =  0.09247

 Side 1 forced transition at x/c =  1.0000   73
 Side 2  free  transition at x/c =  0.0316   26
 idif Ue xi dudx           1  0.14704753      5.00452518E-03   29.382914    
 Uenew xinew           2  4.82218936E-02  1.64115429E-03

  26   rms: 0.3237E+00   max: 0.1437E+01   T at   27  2   RLX: 0.435
       a = -9.900      CL = -0.4929
      Cm = -0.0198     CD =  0.09274   =>   CDf =  0.00233    CDp =  0.09041

 Side 1 forced transition at x/c =  1.0000   72
 Side 2  free  transition at x/c =  0.0304   27
 idif Ue xi dudx           1  0.12811553      4.78678942E-03   26.764397    
 Uenew xinew           2  2.91952621E-02  1.09082460E-03

  27   rms: 0.1354E+01   max: 0.3850E+01   D at   47  2   RLX: 0.390
       a = -9.900      CL = -0.6668
      Cm = -0.0172     CD =  0.06485   =>   CDf =  0.00455    CDp =  0.06031

 MRCHDU: Convergence failed at  49  side 2    Res =  0.1304E+03
 MRCHDU: Convergence failed at  50  side 2    Res =  0.3299E+01
 MRCHDU: Convergence failed at  51  side 2    Res =  0.2121E+01
 MRCHDU: Convergence failed at  52  side 2    Res =  0.1643E+01
 MRCHDU: Convergence failed at  53  side 2    Res =  0.1125E+01
 MRCHDU: Convergence failed at  54  side 2    Res =  0.1093E+01
 MRCHDU: Convergence failed at  55  side 2    Res =  0.1060E+01
 MRCHDU: Convergence failed at  56  side 2    Res =  0.1352E+01
 MRCHDU: Convergence failed at  57  side 2    Res =  0.1583E+01
 MRCHDU: Convergence failed at  58  side 2    Res =  0.1876E+01
 MRCHDU: Convergence failed at  59  side 2    Res =  0.2238E+01
 MRCHDU: Convergence failed at  60  side 2    Res =  0.2739E+01
 MRCHDU: Convergence failed at  61  side 2    Res =  0.3406E+01
 MRCHDU: Convergence failed at  62  side 2    Res =  0.4387E+01
 MRCHDU: Convergence failed at  63  side 2    Res =  0.5881E+01
 MRCHDU: Convergence failed at  64  side 2    Res =  0.8412E+01
 MRCHDU: Convergence failed at  65  side 2    Res =  0.1392E+02
 MRCHDU: Convergence failed at  66  side 2    Res =  0.3341E+02
 MRCHDU: Convergence failed at  67  side 2    Res =  0.1538E+03
 MRCHDU: Convergence failed at  68  side 2    Res =  0.2580E+02
 MRCHDU: Convergence failed at  69  side 2    Res =  0.1482E+02
 MRCHDU: Convergence failed at  70  side 2    Res =  0.1006E+02
 MRCHDU: Convergence failed at  71  side 2    Res =  0.8274E+01
 MRCHDU: Convergence failed at  72  side 2    Res =  0.7163E+01
 MRCHDU: Convergence failed at  73  side 2    Res =  0.6415E+01
 MRCHDU: Convergence failed at  74  side 2    Res =  0.5898E+01
 MRCHDU: Convergence failed at  75  side 2    Res =  0.5503E+01
 MRCHDU: Convergence failed at  76  side 2    Res =  0.5207E+01
 MRCHDU: Convergence failed at  77  side 2    Res =  0.4998E+01
 MRCHDU: Convergence failed at  78  side 2    Res =  0.4845E+01
 MRCHDU: Convergence failed at  79  side 2    Res =  0.4735E+01
 MRCHDU: Convergence failed at  80  side 2    Res =  0.4667E+01
 MRCHDU: Convergence failed at  81  side 2    Res =  0.4635E+01
 MRCHDU: Convergence failed at  82  side 2    Res =  0.4633E+01
 MRCHDU: Convergence failed at  83  side 2    Res =  0.4664E+01
 MRCHDU: Convergence failed at  84  side 2    Res =  0.4725E+01
 MRCHDU: Convergence failed at  85  side 2    Res =  0.4822E+01
 MRCHDU: Convergence failed at  86  side 2    Res =  0.4965E+01
 MRCHDU: Convergence failed at  87  side 2    Res =  0.5156E+01
 MRCHDU: Convergence failed at  88  side 2    Res =  0.5561E+01
 MRCHDU: Convergence failed at  89  side 2    Res =  0.5889E+01
 MRCHDU: Convergence failed at  90  side 2    Res =  0.6266E+01
 MRCHDU: Convergence failed at  91  side 2    Res =  0.6758E+01
 Side 1 forced transition at x/c =  1.0000   71
 Side 2  free  transition at x/c =  0.0242   27

  28   rms: 0.3921E+00   max: 0.1523E+01   D at  100  2   RLX: 0.331
       a = -9.900      CL = -0.8827
      Cm =  0.0848     CD =  0.05321   =>   CDf =  0.00236    CDp =  0.05084

 Side 1 forced transition at x/c =  1.0000   71
 Side 2  free  transition at x/c =  0.0245   27
 idif Ue xi dudx           1  0.14475226      6.18934631E-03   23.387327    
 Uenew xinew           2  4.91717197E-02  2.10249424E-03

  29   rms: 0.5633E+00   max: 0.1839E+01   D at   91  2   RLX: 0.754
       a = -9.900      CL = -0.9405
      Cm =  0.0181     CD =  0.06637   =>   CDf =  0.00368    CDp =  0.06269

 MRCHDU: Convergence failed at  57  side 2    Res =  0.2085E+02
[...]
      Cm = -0.0203     CD =  0.12379   =>   CDf =  0.00398    CDp =  0.11981
 plradd ia,ip,cpol          282          98  4.91614570E-04

 Point added to stored polar  1
 Save file unspecified or not available
 Dump file unspecified or not available

.OPERva   c>  
.OPERva   c>  
.OPERva   c>   Calculating wake trajectory ...
 Calculating source influence matrix ...

 Solving BL system ...

 Side 1  free  transition at x/c =  0.0230   32
 Side 2 forced transition at x/c =  1.0000   63

   1   rms: 0.1041E-01   max: 0.4989E-01   D at   50  1   RLX: 0.423
       a = 18.900      CL =  1.2392
      Cm = -0.0208     CD =  0.12481   =>   CDf =  0.00398    CDp =  0.12083

 Side 1  free  transition at x/c =  0.0229   32
 Side 2 forced transition at x/c =  1.0000   63

   2   rms: 0.6128E-02   max: 0.2879E-01   D at   50  1
       a = 18.900      CL =  1.2384
      Cm = -0.0213     CD =  0.12599   =>   CDf =  0.00397    CDp =  0.12202

 Side 1  free  transition at x/c =  0.0228   32
 Side 2 forced transition at x/c =  1.0000   63

   3   rms: 0.1328E-02   max: 0.5563E-02   D at   82  2
       a = 18.900      CL =  1.2374
      Cm = -0.0212     CD =  0.12571   =>   CDf =  0.00396    CDp =  0.12175

 Side 1  free  transition at x/c =  0.0228   32
 Side 2 forced transition at x/c =  1.0000   63

   4   rms: 0.8371E-04   max: 0.5665E-03   D at   79  2
       a = 18.900      CL =  1.2374
      Cm = -0.0212     CD =  0.12565   =>   CDf =  0.00396    CDp =  0.12170
 plradd ia,ip,cpol          283          98  4.91614570E-04

 Point added to stored polar  1
 Save file unspecified or not available
 Dump file unspecified or not available

.OPERva   c>  
.OPERva   c>  
.OPERva   c>   Calculating wake trajectory ...
 Calculating source influence matrix ...

 Solving BL system ...

 Side 1  free  transition at x/c =  0.0228   32
 Side 2 forced transition at x/c =  1.0000   63

   1   rms: 0.1007E-01   max: 0.4615E-01   D at   50  1   RLX: 0.418
       a = 19.000      CL =  1.2372
      Cm = -0.0216     CD =  0.12661   =>   CDf =  0.00396    CDp =  0.12265

 Side 1  free  transition at x/c =  0.0227   32
 Side 2 forced transition at x/c =  1.0000   63

   2   rms: 0.5973E-02   max: 0.2723E-01   D at   50  1
       a = 19.000      CL =  1.2366
      Cm = -0.0221     CD =  0.12777   =>   CDf =  0.00395    CDp =  0.12382

 Side 1  free  transition at x/c =  0.0226   32
 Side 2 forced transition at x/c =  1.0000   63

   3   rms: 0.1312E-02   max: 0.5259E-02   D at   80  2
       a = 19.000      CL =  1.2356
      Cm = -0.0220     CD =  0.12750   =>   CDf =  0.00394    CDp =  0.12356

 Side 1  free  transition at x/c =  0.0226   32
 Side 2 forced transition at x/c =  1.0000   63

   4   rms: 0.9203E-04   max: 0.6234E-03   D at   80  2
       a = 19.000      CL =  1.2355
      Cm = -0.0220     CD =  0.12744   =>   CDf =  0.00394    CDp =  0.12350
 plradd ia,ip,cpol          284          98  4.91614570E-04

 Point added to stored polar  1
 Save file unspecified or not available
 Dump file unspecified or not available

.OPERva   c>  
.OPERva   c>  
.OPERva   c>   Calculating wake trajectory ...
 Calculating source influence matrix ...

 Solving BL system ...

 Side 1  free  transition at x/c =  0.0226   32
 Side 2 forced transition at x/c =  1.0000   63

   1   rms: 0.1008E-01   max: 0.4536E-01   D at   49  1   RLX: 0.414
       a = 19.100      CL =  1.2354
      Cm = -0.0224     CD =  0.12839   =>   CDf =  0.00394    CDp =  0.12445

 Side 1  free  transition at x/c =  0.0225   32
 Side 2 forced transition at x/c =  1.0000   63

   2   rms: 0.6018E-02   max: 0.2696E-01   D at   50  1
       a = 19.100      CL =  1.2348
      Cm = -0.0230     CD =  0.12957   =>   CDf =  0.00393    CDp =  0.12563

 Side 1  free  transition at x/c =  0.0224   32
 Side 2 forced transition at x/c =  1.0000   63

   3   rms: 0.1329E-02   max: 0.5488E-02   D at   80  2
       a = 19.100      CL =  1.2339
      Cm = -0.0229     CD =  0.12928   =>   CDf =  0.00392    CDp =  0.12536

 Side 1  free  transition at x/c =  0.0224   32
 Side 2 forced transition at x/c =  1.0000   63

   4   rms: 0.9602E-04   max: 0.6716E-03   D at   80  2
       a = 19.100      CL =  1.2338
      Cm = -0.0229     CD =  0.12921   =>   CDf =  0.00392    CDp =  0.12530
 plradd ia,ip,cpol          285          98  4.91614570E-04

 Point added to stored polar  1
 Save file unspecified or not available
 Dump file unspecified or not available

.OPERva   c>  
.OPERva   c>  
.OPERva   c>   Calculating wake trajectory ...
 Calculating source influence matrix ...

 Solving BL system ...

 Side 1  free  transition at x/c =  0.0224   32
 Side 2 forced transition at x/c =  1.0000   63

   1   rms: 0.9990E-02   max: 0.4400E-01   D at   49  1   RLX: 0.409
       a = 19.200      CL =  1.2338
      Cm = -0.0233     CD =  0.13012   =>   CDf =  0.00392    CDp =  0.12620

 Side 1  free  transition at x/c =  0.0223   32
 Side 2 forced transition at x/c =  1.0000   63

   2   rms: 0.5974E-02   max: 0.2608E-01   D at   49  1
       a = 19.200      CL =  1.2333
      Cm = -0.0238     CD =  0.13127   =>   CDf =  0.00391    CDp =  0.12736

 Side 1  free  transition at x/c =  0.0222   32
 Side 2 forced transition at x/c =  1.0000   63

   3   rms: 0.1306E-02   max: 0.5237E-02   D at   82  2
       a = 19.200      CL =  1.2324
      Cm = -0.0237     CD =  0.13100   =>   CDf =  0.00391    CDp =  0.12710

 Side 1  free  transition at x/c =  0.0222   32
 Side 2 forced transition at x/c =  1.0000   63

   4   rms: 0.1075E-03   max: 0.6639E-03   D at   80  2
       a = 19.200      CL =  1.2323
      Cm = -0.0237     CD =  0.13095   =>   CDf =  0.00391    CDp =  0.12704

 Side 1  free  transition at x/c =  0.0222   32
 Side 2 forced transition at x/c =  1.0000   63

   5   rms: 0.3036E-05   max: -.3955E-04   C at   63  2
       a = 19.200      CL =  1.2323
      Cm = -0.0237     CD =  0.13094   =>   CDf =  0.00390    CDp =  0.12704
 plradd ia,ip,cpol          286          98  4.91614570E-04

 Point added to stored polar  1
 Save file unspecified or not available
 Dump file unspecified or not available

.OPERva   c>  
.OPERva   c>  
.OPERva   c>   Calculating wake trajectory ...
 Calculating source influence matrix ...

 Solving BL system ...

 Side 1  free  transition at x/c =  0.0222   32
 Side 2 forced transition at x/c =  1.0000   63

   1   rms: 0.9886E-02   max: 0.4259E-01   D at   49  1   RLX: 0.405
       a = 19.300      CL =  1.2323
      Cm = -0.0241     CD =  0.13184   =>   CDf =  0.00391    CDp =  0.12793

 Side 1  free  transition at x/c =  0.0221   32
 Side 2 forced transition at x/c =  1.0000   63

   2   rms: 0.5970E-02   max: 0.2565E-01   D at   49  1
       a = 19.300      CL =  1.2319
      Cm = -0.0246     CD =  0.13300   =>   CDf =  0.00390    CDp =  0.12909

 Side 1  free  transition at x/c =  0.0220   32
 Side 2 forced transition at x/c =  1.0000   63

   3   rms: 0.1431E-02   max: 0.5590E-02   D at   80  2
       a = 19.300      CL =  1.2309
      Cm = -0.0246     CD =  0.13274   =>   CDf =  0.00390    CDp =  0.12884

 Side 1  free  transition at x/c =  0.0220   32
 Side 2 forced transition at x/c =  1.0000   63

   4   rms: 0.1259E-03   max: 0.7789E-03   D at   80  2
       a = 19.300      CL =  1.2308
      Cm = -0.0245     CD =  0.13267   =>   CDf =  0.00390    CDp =  0.12878

 Side 1  free  transition at x/c =  0.0220   32
 Side 2 forced transition at x/c =  1.0000   63

   5   rms: 0.5317E-05   max: -.7893E-04   C at   63  2
       a = 19.300      CL =  1.2308
      Cm = -0.0245     CD =  0.13267   =>   CDf =  0.00390    CDp =  0.12877
 plradd ia,ip,cpol          287          98  4.91614570E-04

 Point added to stored polar  1
 Save file unspecified or not available
 Dump file unspecified or not available

.OPERva   c>  
.OPERva   c>  
.OPERva   c>   Calculating wake trajectory ...
 Calculating source influence matrix ...

 Solving BL system ...

 Side 1  free  transition at x/c =  0.0220   32
 Side 2 forced transition at x/c =  1.0000   63

   1   rms: 0.9761E-02   max: 0.4727E-01   T at   32  1   RLX: 0.401
       a = 19.400      CL =  1.2308
      Cm = -0.0249     CD =  0.13355   =>   CDf =  0.00390    CDp =  0.12965

 Side 1  free  transition at x/c =  0.0219   32
 Side 2 forced transition at x/c =  1.0000   63

   2   rms: 0.5864E-02   max: 0.2739E-01   T at   32  1
       a = 19.400      CL =  1.2305
      Cm = -0.0254     CD =  0.13466   =>   CDf =  0.00390    CDp =  0.13076

 Side 1  free  transition at x/c =  0.0217   32
 Side 2 forced transition at x/c =  1.0000   63

   3   rms: 0.1265E-02   max: 0.5114E-02   D at   80  2
       a = 19.400      CL =  1.2296
      Cm = -0.0253     CD =  0.13438   =>   CDf =  0.00389    CDp =  0.13048

 Side 1  free  transition at x/c =  0.0218   32
 Side 2 forced transition at x/c =  1.0000   63

   4   rms: 0.1113E-03   max: 0.6969E-03   D at   80  2
       a = 19.400      CL =  1.2296
      Cm = -0.0253     CD =  0.13431   =>   CDf =  0.00389    CDp =  0.13042

 Side 1  free  transition at x/c =  0.0218   32
 Side 2 forced transition at x/c =  1.0000   63

   5   rms: 0.4446E-05   max: -.5300E-04   C at   63  2
       a = 19.400      CL =  1.2296
      Cm = -0.0253     CD =  0.13431   =>   CDf =  0.00389    CDp =  0.13042
 plradd ia,ip,cpol          288          98  4.91614570E-04

 Point added to stored polar  1
 Save file unspecified or not available
 Dump file unspecified or not available

.OPERva   c>  
.OPERva   c>  
.OPERva   c>   Calculating wake trajectory ...
 Calculating source influence matrix ...

 Solving BL system ...

 Side 1  free  transition at x/c =  0.0218   32
 Side 2 forced transition at x/c =  1.0000   63

   1   rms: 0.9659E-02   max: 0.5370E-01   T at   32  1   RLX: 0.397
       a = 19.500      CL =  1.2298
      Cm = -0.0256     CD =  0.13507   =>   CDf =  0.00389    CDp =  0.13117

 Side 1  free  transition at x/c =  0.0216   32
 Side 2 forced transition at x/c =  1.0000   63

   2   rms: 0.5915E-02   max: 0.3380E-01   T at   32  1
       a = 19.500      CL =  1.2301
      Cm = -0.0260     CD =  0.13595   =>   CDf =  0.00390    CDp =  0.13205

 Side 1  free  transition at x/c =  0.0215   32
 Side 2 forced transition at x/c =  1.0000   63

   3   rms: 0.9416E-03   max: 0.3979E-02   D at   80  2
       a = 19.500      CL =  1.2295
      Cm = -0.0259     CD =  0.13569   =>   CDf =  0.00390    CDp =  0.13178

 Side 1  free  transition at x/c =  0.0215   32
 Side 2 forced transition at x/c =  1.0000   63

   4   rms: 0.6402E-04   max: 0.3973E-03   D at   80  2
       a = 19.500      CL =  1.2294
      Cm = -0.0259     CD =  0.13565   =>   CDf =  0.00390    CDp =  0.13175
 plradd ia,ip,cpol          289          98  4.91614570E-04

 Point added to stored polar  1
 Save file unspecified or not available
 Dump file unspecified or not available

.OPERva   c>  
.OPERva   c>  
.OPERva   c>   Calculating wake trajectory ...
 Calculating source influence matrix ...

 Solving BL system ...

 Side 1  free  transition at x/c =  0.0215   32
 Side 2 forced transition at x/c =  1.0000   63

   1   rms: 0.1162E-01   max: 0.6539E-01   T at   32  1   RLX: 0.394
       a = 19.600      CL =  1.2303
      Cm = -0.0260     CD =  0.13608   =>   CDf =  0.00391    CDp =  0.13218

 Side 1  free  transition at x/c =  0.0213   32
 Side 2 forced transition at x/c =  1.0000   63

   2   rms: 0.8785E-02   max: 0.4705E-01   T at   32  1
       a = 19.600      CL =  1.2319
      Cm = -0.0260     CD =  0.13641   =>   CDf =  0.00350    CDp =  0.13290

 Side 1  free  transition at x/c =  0.0211   32
 Side 2 forced transition at x/c =  1.0000   62
 idif Ue xi dudx           1  7.88917840E-02  7.80785084E-03   10.104161    
 Uenew xinew           2  1.03587852E-04  1.02519989E-05

   3   rms: 0.1094E-01   max: -.1460E+00   D at    2  1
       a = 19.600      CL =  1.2301
      Cm = -0.0265     CD =  0.13721   =>   CDf =  0.00429    CDp =  0.13292

 Side 1  free  transition at x/c =  0.0212   31
 Side 2 forced transition at x/c =  1.0000   63

   4   rms: 0.8932E-02   max: -.1569E+00   T at    2  2
       a = 19.600      CL =  1.2295
      Cm = -0.0265     CD =  0.13702   =>   CDf =  0.00390    CDp =  0.13312

 Side 1  free  transition at x/c =  0.0212   31
 Side 2 forced transition at x/c =  1.0000   63

   5   rms: 0.1107E-03   max: -.9965E-03   D at    4  2
       a = 19.600      CL =  1.2294
      Cm = -0.0265     CD =  0.13696   =>   CDf =  0.00390    CDp =  0.13306

 Side 1  free  transition at x/c =  0.0212   31
 Side 2 forced transition at x/c =  1.0000   63

   6   rms: 0.3566E-05   max: -.1405E-04   D at    3  2
       a = 19.600      CL =  1.2294
      Cm = -0.0265     CD =  0.13696   =>   CDf =  0.00390    CDp =  0.13306
 plradd ia,ip,cpol          290          98  4.91614570E-04

 Point added to stored polar  1
 Save file unspecified or not available
 Dump file unspecified or not available

.OPERva   c>  
.OPERva   c>  
.OPERva   c>   Calculating wake trajectory ...
 Calculating source influence matrix ...

 Solving BL system ...

 Side 1  free  transition at x/c =  0.0212   31
 Side 2 forced transition at x/c =  1.0000   63

   1   rms: 0.1086E-01   max: 0.5330E-01   D at   49  1   RLX: 0.389
       a = 19.700      CL =  1.2292
      Cm = -0.0269     CD =  0.13796   =>   CDf =  0.00349    CDp =  0.13446

 Side 1  free  transition at x/c =  0.0211   32
 Side 2 forced transition at x/c =  1.0000   62

   2   rms: 0.1178E-01   max: 0.1695E+00   T at    2  1
       a = 19.700      CL =  1.2287
      Cm = -0.0276     CD =  0.13930   =>   CDf =  0.00388    CDp =  0.13542

 Side 1  free  transition at x/c =  0.0211   32
 Side 2 forced transition at x/c =  1.0000   62

   3   rms: 0.1302E-02   max: 0.5732E-02   D at   80  2
       a = 19.700      CL =  1.2277
      Cm = -0.0275     CD =  0.13891   =>   CDf =  0.00385    CDp =  0.13506

 Side 1  free  transition at x/c =  0.0211   32
 Side 2 forced transition at x/c =  1.0000   62

   4   rms: 0.7645E-04   max: 0.5958E-03   D at   80  2
       a = 19.700      CL =  1.2277
      Cm = -0.0274     CD =  0.13885   =>   CDf =  0.00385    CDp =  0.13500
 plradd ia,ip,cpol          291          99  4.91614570E-04

 Point added to stored polar  1
 Save file unspecified or not available
 Dump file unspecified or not available

.OPERva   c>  
.OPERva   c>  
.OPERva   c>   Calculating wake trajectory ...
 Calculating source influence matrix ...

 Solving BL system ...

 Side 1  free  transition at x/c =  0.0211   32
 Side 2 forced transition at x/c =  1.0000   62

   1   rms: 0.1020E-01   max: 0.4991E-01   D at   50  1   RLX: 0.385
       a = 19.800      CL =  1.2276
      Cm = -0.0279     CD =  0.13981   =>   CDf =  0.00385    CDp =  0.13596

 Side 1  free  transition at x/c =  0.0210   32
 Side 2 forced transition at x/c =  1.0000   62

   2   rms: 0.6497E-02   max: 0.3236E-01   D at   50  1
       a = 19.800      CL =  1.2271
      Cm = -0.0285     CD =  0.14119   =>   CDf =  0.00384    CDp =  0.13735

 Side 1  free  transition at x/c =  0.0209   32
 Side 2 forced transition at x/c =  1.0000   62

   3   rms: 0.1368E-02   max: 0.6085E-02   D at   82  2
       a = 19.800      CL =  1.2262
      Cm = -0.0284     CD =  0.14080   =>   CDf =  0.00381    CDp =  0.13699

 Side 1  free  transition at x/c =  0.0209   32
 Side 2 forced transition at x/c =  1.0000   62

   4   rms: 0.9500E-04   max: 0.7164E-03   D at   79  2
       a = 19.800      CL =  1.2261
      Cm = -0.0284     CD =  0.14071   =>   CDf =  0.00381    CDp =  0.13691
 plradd ia,ip,cpol          292          99  4.91614570E-04

 Point added to stored polar  1
 Save file unspecified or not available
 Dump file unspecified or not available

.OPERva   c>  
.OPERva   c>  
.OPERva   c>   Calculating wake trajectory ...
 Calculating source influence matrix ...

 Solving BL system ...

 Side 1  free  transition at x/c =  0.0209   32
 Side 2 forced transition at x/c =  1.0000   62

   1   rms: 0.1006E-01   max: 0.4966E-01   D at   49  1   RLX: 0.381
       a = 19.900      CL =  1.2261
      Cm = -0.0289     CD =  0.14166   =>   CDf =  0.00381    CDp =  0.13785

 Side 1  free  transition at x/c =  0.0209   32
 Side 2 forced transition at x/c =  1.0000   62

   2   rms: 0.6289E-02   max: 0.3033E-01   D at   49  1
       a = 19.900      CL =  1.2257
      Cm = -0.0295     CD =  0.14298   =>   CDf =  0.00379    CDp =  0.13919

 Side 1  free  transition at x/c =  0.0208   32
 Side 2 forced transition at x/c =  1.0000   62

   3   rms: 0.1376E-02   max: 0.6202E-02   D at   82  2
       a = 19.900      CL =  1.2248
      Cm = -0.0294     CD =  0.14261   =>   CDf =  0.00377    CDp =  0.13885

 Side 1  free  transition at x/c =  0.0208   32
 Side 2 forced transition at x/c =  1.0000   62

   4   rms: 0.1113E-03   max: 0.9266E-03   D at   80  2
       a = 19.900      CL =  1.2247
      Cm = -0.0294     CD =  0.14253   =>   CDf =  0.00377    CDp =  0.13876

 Side 1  free  transition at x/c =  0.0208   32
 Side 2 forced transition at x/c =  1.0000   62

   5   rms: 0.3749E-05   max: -.3869E-04   C at   62  2
       a = 19.900      CL =  1.2247
      Cm = -0.0294     CD =  0.14253   =>   CDf =  0.00377    CDp =  0.13876
 plradd ia,ip,cpol          293          99  4.91614570E-04

 Point added to stored polar  1
 Save file unspecified or not available
 Dump file unspecified or not available

.OPERva   c>  
.OPERva   c>  
.OPERva   c>   Calculating wake trajectory ...
 Calculating source influence matrix ...

 Solving BL system ...

 Side 1  free  transition at x/c =  0.0208   32
 Side 2 forced transition at x/c =  1.0000   62

   1   rms: 0.9972E-02   max: 0.4917E-01   D at   49  1   RLX: 0.378
       a = 20.000      CL =  1.2247
      Cm = -0.0298     CD =  0.14346   =>   CDf =  0.00377    CDp =  0.13969

 Side 1  free  transition at x/c =  0.0207   32
 Side 2 forced transition at x/c =  1.0000   62

   2   rms: 0.6290E-02   max: 0.3051E-01   D at   49  1
       a = 20.000      CL =  1.2244
      Cm = -0.0305     CD =  0.14480   =>   CDf =  0.00375    CDp =  0.14105

 Side 1  free  transition at x/c =  0.0206   32
 Side 2 forced transition at x/c =  1.0000   62

   3   rms: 0.1622E-02   max: 0.6562E-02   D at   82  2
       a = 20.000      CL =  1.2233
      Cm = -0.0304     CD =  0.14447   =>   CDf =  0.00373    CDp =  0.14075

 Side 1  free  transition at x/c =  0.0206   32
 Side 2 forced transition at x/c =  1.0000   62

   4   rms: 0.1555E-03   max: 0.1090E-02   D at   80  2
       a = 20.000      CL =  1.2232
      Cm = -0.0304     CD =  0.14438   =>   CDf =  0.00373    CDp =  0.14065

 Side 1  free  transition at x/c =  0.0206   32
 Side 2 forced transition at x/c =  1.0000   62

   5   rms: 0.5244E-05   max: 0.3663E-04   D at   79  2
       a = 20.000      CL =  1.2232
      Cm = -0.0304     CD =  0.14437   =>   CDf =  0.00373    CDp =  0.14065
 plradd ia,ip,cpol          294          99  4.91614570E-04

 Point added to stored polar  1
 Save file unspecified or not available
 Dump file unspecified or not available

.OPERva   c>  
.OPERva   c>  
.OPERva   c>  
        airfoil                    Re           Mach       Ncrit  XtripT  XtripB     file
       ------------------------  ------------  ----------  -----  ------  ------    -------------------
 >  1  NACA 24012                5.000e5       0.080        9.00   1.000   1.000    

Enter polar output filename   s>  
 Output file exists.  Overwrite?  Y

.OPERva   c>  
 XFOIL   c>  